/*---------------------------------------------------------------------------*\
  =========                 |
  \\      /  F ield         | OpenFOAM: The Open Source CFD Toolbox
   \\    /   O peration     | Website:  https://openfoam.org
    \\  /    A nd           | Version:  7
     \\/     M anipulation  |
\*---------------------------------------------------------------------------*/
Build  : 7-1ff648926f77
Exec   : actuatorCylinderSimpleFoam
Date   : Jun 18 2021
Time   : 16:02:07
Host   : "edgar-23-p110la"
PID    : 15518
I/O    : uncollated
Case   : /home/edgar/OpenFOAM/edgar-7/run/actuatorCylinderA
nProcs : 1
sigFpe : Enabling floating point exception trapping (FOAM_SIGFPE).
fileModificationChecking : Monitoring run-time modified files using timeStampMaster (fileModificationSkew 10)
allowSystemOperations : Allowing user-supplied system call operations

// * * * * * * * * * * * * * * * * * * * * * * * * * * * * * * * * * * * * * //
Create time

Create mesh for time = 0


SIMPLE: Convergence criteria found
        p: tolerance 0.001
        U: tolerance 0.0001
        "(k|epsilon)": tolerance 0.0001

Reading field p

Reading field U

Using #calcEntry at line 18 in file "/home/edgar/OpenFOAM/edgar-7/run/actuatorCylinderA/0/U"
Using #codeStream with "/home/edgar/OpenFOAM/edgar-7/run/actuatorCylinderA/dynamicCode/platforms/linux64GccDPInt32Opt/lib/libcodeStream_519448ad6b9c35c2155692de43f18faa8a719bbe.so"
Using #calcEntry at line 28 in file "/home/edgar/OpenFOAM/edgar-7/run/actuatorCylinderA/0/U"
Using #codeStream with "/home/edgar/OpenFOAM/edgar-7/run/actuatorCylinderA/dynamicCode/platforms/linux64GccDPInt32Opt/lib/libcodeStream_47becce7e69b82e567262473512007667db045bd.so"
Using #calcEntry at line 29 in file "/home/edgar/OpenFOAM/edgar-7/run/actuatorCylinderA/0/U"
Using #codeStream with "/home/edgar/OpenFOAM/edgar-7/run/actuatorCylinderA/dynamicCode/platforms/linux64GccDPInt32Opt/lib/libcodeStream_4766e3930a84c5e29b0542409edcae7a449701e4.so"
Using #calcEntry at line 30 in file "/home/edgar/OpenFOAM/edgar-7/run/actuatorCylinderA/0/U"
Using #codeStream with "/home/edgar/OpenFOAM/edgar-7/run/actuatorCylinderA/dynamicCode/platforms/linux64GccDPInt32Opt/lib/libcodeStream_8b5d1ea1c4a65b801f6b938e15a658d50322e636.so"
Using #calcEntry at line 31 in file "/home/edgar/OpenFOAM/edgar-7/run/actuatorCylinderA/0/U"
Using #codeStream with "/home/edgar/OpenFOAM/edgar-7/run/actuatorCylinderA/dynamicCode/platforms/linux64GccDPInt32Opt/lib/libcodeStream_e2398e28d9b9baa5f5590fcffbc3358748456401.so"
Reading/calculating face flux field phi

Selecting incompressible transport model Newtonian
Selecting turbulence model type RAS
Selecting RAS turbulence model kEpsilon
Using #calcEntry at line 18 in file "/home/edgar/OpenFOAM/edgar-7/run/actuatorCylinderA/0/nut"
Using #calcEntry at line 28 in file "/home/edgar/OpenFOAM/edgar-7/run/actuatorCylinderA/0/nut"
Using #calcEntry at line 29 in file "/home/edgar/OpenFOAM/edgar-7/run/actuatorCylinderA/0/nut"
Using #calcEntry at line 30 in file "/home/edgar/OpenFOAM/edgar-7/run/actuatorCylinderA/0/nut"
Using #calcEntry at line 31 in file "/home/edgar/OpenFOAM/edgar-7/run/actuatorCylinderA/0/nut"
Using #calcEntry at line 18 in file "/home/edgar/OpenFOAM/edgar-7/run/actuatorCylinderA/0/k"
Using #calcEntry at line 28 in file "/home/edgar/OpenFOAM/edgar-7/run/actuatorCylinderA/0/k"
Using #calcEntry at line 29 in file "/home/edgar/OpenFOAM/edgar-7/run/actuatorCylinderA/0/k"
Using #calcEntry at line 30 in file "/home/edgar/OpenFOAM/edgar-7/run/actuatorCylinderA/0/k"
Using #calcEntry at line 31 in file "/home/edgar/OpenFOAM/edgar-7/run/actuatorCylinderA/0/k"
Using #calcEntry at line 18 in file "/home/edgar/OpenFOAM/edgar-7/run/actuatorCylinderA/0/epsilon"
Using #calcEntry at line 28 in file "/home/edgar/OpenFOAM/edgar-7/run/actuatorCylinderA/0/epsilon"
Using #calcEntry at line 29 in file "/home/edgar/OpenFOAM/edgar-7/run/actuatorCylinderA/0/epsilon"
Using #calcEntry at line 30 in file "/home/edgar/OpenFOAM/edgar-7/run/actuatorCylinderA/0/epsilon"
Using #calcEntry at line 31 in file "/home/edgar/OpenFOAM/edgar-7/run/actuatorCylinderA/0/epsilon"
RAS
{
    RASModel        kEpsilon;
    turbulence      on;
    printCoeffs     on;
    Cmu             0.09;
    C1              1.44;
    C2              1.92;
    C3              0;
    sigmak          1;
    sigmaEps        1.3;
}

No MRF models present

Create volume force field.
No finite volume options present

Starting time loop


Center ..........(0 -41.25 0)
Ri ..............23.5
Ro ..............26.5
Spin ............0
NACA00 ..........18
BPA .............0
NB ..............3
CH ..............1.5
R ...............25
RPM .............16.5
LAMBDA ..........4.5
U0 ..............9.6

Cylinder cells have been collected.
Arrays were initialized.
actuatorCylinder0 was created.

Center ..........(0 41.25 0)
Ri ..............23.5
Ro ..............26.5
Spin ............1
NACA00 ..........18
BPA .............0
NB ..............3
CH ..............1.5
R ...............25
RPM .............16.5
LAMBDA ..........4.5
U0 ..............9.6

Cylinder cells have been collected.
Arrays were initialized.
actuatorCylinder1 was created.

Center ..........(282.75 -324 0)
Ri ..............23.5
Ro ..............26.5
Spin ............0
NACA00 ..........18
BPA .............0
NB ..............3
CH ..............1.5
R ...............25
RPM .............16.5
LAMBDA ..........4.5
U0 ..............9.6

Cylinder cells have been collected.
Arrays were initialized.
actuatorCylinder2 was created.

Center ..........(282.75 -241.5 0)
Ri ..............23.5
Ro ..............26.5
Spin ............1
NACA00 ..........18
BPA .............0
NB ..............3
CH ..............1.5
R ...............25
RPM .............16.5
LAMBDA ..........4.5
U0 ..............9.6

Cylinder cells have been collected.
Arrays were initialized.
actuatorCylinder3 was created.

Center ..........(565.5 -606.75 0)
Ri ..............23.5
Ro ..............26.5
Spin ............0
NACA00 ..........18
BPA .............0
NB ..............3
CH ..............1.5
R ...............25
RPM .............16.5
LAMBDA ..........4.5
U0 ..............9.6

Cylinder cells have been collected.
Arrays were initialized.
actuatorCylinder4 was created.

Center ..........(565.5 -524 0)
Ri ..............23.5
Ro ..............26.5
Spin ............1
NACA00 ..........18
BPA .............0
NB ..............3
CH ..............1.5
R ...............25
RPM .............16.5
LAMBDA ..........4.5
U0 ..............9.6

Cylinder cells have been collected.
Arrays were initialized.
actuatorCylinder5 was created.

Center ..........(282.75 241.5 0)
Ri ..............23.5
Ro ..............26.5
Spin ............0
NACA00 ..........18
BPA .............0
NB ..............3
CH ..............1.5
R ...............25
RPM .............16.5
LAMBDA ..........4.5
U0 ..............9.6

Cylinder cells have been collected.
Arrays were initialized.
actuatorCylinder6 was created.

Center ..........(282.75 324 0)
Ri ..............23.5
Ro ..............26.5
Spin ............1
NACA00 ..........18
BPA .............0
NB ..............3
CH ..............1.5
R ...............25
RPM .............16.5
LAMBDA ..........4.5
U0 ..............9.6

Cylinder cells have been collected.
Arrays were initialized.
actuatorCylinder7 was created.

Center ..........(565.5 -41.25 0)
Ri ..............23.5
Ro ..............26.5
Spin ............0
NACA00 ..........18
BPA .............0
NB ..............3
CH ..............1.5
R ...............25
RPM .............16.5
LAMBDA ..........4.5
U0 ..............9.6

Cylinder cells have been collected.
Arrays were initialized.
actuatorCylinder8 was created.

Center ..........(565.5 41.25 0)
Ri ..............23.5
Ro ..............26.5
Spin ............1
NACA00 ..........18
BPA .............0
NB ..............3
CH ..............1.5
R ...............25
RPM .............16.5
LAMBDA ..........4.5
U0 ..............9.6

Cylinder cells have been collected.
Arrays were initialized.
actuatorCylinder9 was created.

Center ..........(565.5 524 0)
Ri ..............23.5
Ro ..............26.5
Spin ............0
NACA00 ..........18
BPA .............0
NB ..............3
CH ..............1.5
R ...............25
RPM .............16.5
LAMBDA ..........4.5
U0 ..............9.6

Cylinder cells have been collected.
Arrays were initialized.
actuatorCylinder10 was created.

Center ..........(565.5 606.75 0)
Ri ..............23.5
Ro ..............26.5
Spin ............1
NACA00 ..........18
BPA .............0
NB ..............3
CH ..............1.5
R ...............25
RPM .............16.5
LAMBDA ..........4.5
U0 ..............9.6

Cylinder cells have been collected.
Arrays were initialized.
actuatorCylinder11 was created.

Center ..........(848.25 -324 0)
Ri ..............23.5
Ro ..............26.5
Spin ............0
NACA00 ..........18
BPA .............0
NB ..............3
CH ..............1.5
R ...............25
RPM .............16.5
LAMBDA ..........4.5
U0 ..............9.6

Cylinder cells have been collected.
Arrays were initialized.
actuatorCylinder12 was created.

Center ..........(848.25 -241.5 0)
Ri ..............23.5
Ro ..............26.5
Spin ............1
NACA00 ..........18
BPA .............0
NB ..............3
CH ..............1.5
R ...............25
RPM .............16.5
LAMBDA ..........4.5
U0 ..............9.6

Cylinder cells have been collected.
Arrays were initialized.
actuatorCylinder13 was created.

Center ..........(848.25 241.5 0)
Ri ..............23.5
Ro ..............26.5
Spin ............0
NACA00 ..........18
BPA .............0
NB ..............3
CH ..............1.5
R ...............25
RPM .............16.5
LAMBDA ..........4.5
U0 ..............9.6

Cylinder cells have been collected.
Arrays were initialized.
actuatorCylinder14 was created.

Center ..........(848.25 324 0)
Ri ..............23.5
Ro ..............26.5
Spin ............1
NACA00 ..........18
BPA .............0
NB ..............3
CH ..............1.5
R ...............25
RPM .............16.5
LAMBDA ..........4.5
U0 ..............9.6

Cylinder cells have been collected.
Arrays were initialized.
actuatorCylinder15 was created.

Center ..........(1131 -41.25 0)
Ri ..............23.5
Ro ..............26.5
Spin ............0
NACA00 ..........18
BPA .............0
NB ..............3
CH ..............1.5
R ...............25
RPM .............16.5
LAMBDA ..........4.5
U0 ..............9.6

Cylinder cells have been collected.
Arrays were initialized.
actuatorCylinder16 was created.

Center ..........(1131 41.25 0)
Ri ..............23.5
Ro ..............26.5
Spin ............1
NACA00 ..........18
BPA .............0
NB ..............3
CH ..............1.5
R ...............25
RPM .............16.5
LAMBDA ..........4.5
U0 ..............9.6

Cylinder cells have been collected.
Arrays were initialized.
actuatorCylinder17 was created.
Time = 1

Power coefficient["0"] ... 0.986107

Power coefficient["1"] ... 0.999265

Power coefficient["2"] ... 0.986107

Power coefficient["3"] ... 0.999265

Power coefficient["4"] ... 0.986107

Power coefficient["5"] ... 0.999265

Power coefficient["6"] ... 0.986107

Power coefficient["7"] ... 0.999265

Power coefficient["8"] ... 0.986107

Power coefficient["9"] ... 0.999265

Power coefficient["10"] ... 0.986107

Power coefficient["11"] ... 0.999265

Power coefficient["12"] ... 0.986107

Power coefficient["13"] ... 0.999265

Power coefficient["14"] ... 0.986107

Power coefficient["15"] ... 0.999265

Power coefficient["16"] ... 0.986107

Power coefficient["17"] ... 0.999265

smoothSolver:  Solving for Ux, Initial residual = 1, Final residual = 0.0835106, No Iterations 2
smoothSolver:  Solving for Uy, Initial residual = 1, Final residual = 0.0809341, No Iterations 2
GAMG:  Solving for p, Initial residual = 1, Final residual = 0.061287, No Iterations 3
time step continuity errors : sum local = 0.000119805, global = 3.01539e-07, cumulative = 3.01539e-07
smoothSolver:  Solving for epsilon, Initial residual = 1, Final residual = 0.0606723, No Iterations 2
smoothSolver:  Solving for k, Initial residual = 1, Final residual = 0.0806985, No Iterations 2
ExecutionTime = 13.73 s  ClockTime = 14 s

Time = 2

Power coefficient["0"] ... 0.777625

Power coefficient["1"] ... 0.799021

Power coefficient["2"] ... 0.779525

Power coefficient["3"] ... 0.80035

Power coefficient["4"] ... 0.78172

Power coefficient["5"] ... 0.797682

Power coefficient["6"] ... 0.778355

Power coefficient["7"] ... 0.802873

Power coefficient["8"] ... 0.777009

Power coefficient["9"] ... 0.796742

Power coefficient["10"] ... 0.776833

Power coefficient["11"] ... 0.802789

Power coefficient["12"] ... 0.780477

Power coefficient["13"] ... 0.798051

Power coefficient["14"] ... 0.772545

Power coefficient["15"] ... 0.804392

Power coefficient["16"] ... 0.778368

Power coefficient["17"] ... 0.800027

smoothSolver:  Solving for Ux, Initial residual = 0.32612, Final residual = 0.0265361, No Iterations 2
smoothSolver:  Solving for Uy, Initial residual = 0.370725, Final residual = 0.0292827, No Iterations 2
GAMG:  Solving for p, Initial residual = 0.575177, Final residual = 0.0490764, No Iterations 3
time step continuity errors : sum local = 0.000135616, global = 1.84065e-07, cumulative = 4.85604e-07
smoothSolver:  Solving for epsilon, Initial residual = 0.919785, Final residual = 0.0562769, No Iterations 2
smoothSolver:  Solving for k, Initial residual = 0.899591, Final residual = 0.0731784, No Iterations 2
ExecutionTime = 18.42 s  ClockTime = 18 s

Time = 3

Power coefficient["0"] ... 0.7805

Power coefficient["1"] ... 0.78553

Power coefficient["2"] ... 0.784702

Power coefficient["3"] ... 0.797197

Power coefficient["4"] ... 0.791995

Power coefficient["5"] ... 0.79767

Power coefficient["6"] ... 0.787005

Power coefficient["7"] ... 0.797117

Power coefficient["8"] ... 0.785241

Power coefficient["9"] ... 0.792931

Power coefficient["10"] ... 0.784945

Power coefficient["11"] ... 0.812553

Power coefficient["12"] ... 0.783645

Power coefficient["13"] ... 0.790329

Power coefficient["14"] ... 0.77785

Power coefficient["15"] ... 0.791651

Power coefficient["16"] ... 0.789968

Power coefficient["17"] ... 0.81241

smoothSolver:  Solving for Ux, Initial residual = 0.295266, Final residual = 0.022989, No Iterations 2
smoothSolver:  Solving for Uy, Initial residual = 0.363621, Final residual = 0.028941, No Iterations 2
GAMG:  Solving for p, Initial residual = 0.392517, Final residual = 0.0331943, No Iterations 2
time step continuity errors : sum local = 0.000102061, global = 2.19709e-07, cumulative = 7.05313e-07
smoothSolver:  Solving for epsilon, Initial residual = 0.859337, Final residual = 0.0526455, No Iterations 2
smoothSolver:  Solving for k, Initial residual = 0.829254, Final residual = 0.0673612, No Iterations 2
ExecutionTime = 21.76 s  ClockTime = 22 s

Time = 4

Power coefficient["0"] ... 0.822406

Power coefficient["1"] ... 0.84171

Power coefficient["2"] ... 0.831967

Power coefficient["3"] ... 0.851044

Power coefficient["4"] ... 0.831388

Power coefficient["5"] ... 0.847614

Power coefficient["6"] ... 0.830992

Power coefficient["7"] ... 0.856792

Power coefficient["8"] ... 0.826736

Power coefficient["9"] ... 0.844738

Power coefficient["10"] ... 0.824944

Power coefficient["11"] ... 0.856527

Power coefficient["12"] ... 0.827258

Power coefficient["13"] ... 0.852278

Power coefficient["14"] ... 0.827116

Power coefficient["15"] ... 0.845485

Power coefficient["16"] ... 0.828718

Power coefficient["17"] ... 0.850046

smoothSolver:  Solving for Ux, Initial residual = 0.189173, Final residual = 0.0148212, No Iterations 2
smoothSolver:  Solving for Uy, Initial residual = 0.23225, Final residual = 0.0187586, No Iterations 2
GAMG:  Solving for p, Initial residual = 0.338936, Final residual = 0.0295413, No Iterations 3
time step continuity errors : sum local = 9.81788e-05, global = -4.74438e-07, cumulative = 2.30874e-07
smoothSolver:  Solving for epsilon, Initial residual = 0.805683, Final residual = 0.0496649, No Iterations 2
smoothSolver:  Solving for k, Initial residual = 0.771229, Final residual = 0.0629618, No Iterations 2
ExecutionTime = 25.08 s  ClockTime = 25 s

Time = 5

Power coefficient["0"] ... 0.850587

Power coefficient["1"] ... 0.870805

Power coefficient["2"] ... 0.857154

Power coefficient["3"] ... 0.869106

Power coefficient["4"] ... 0.850551

Power coefficient["5"] ... 0.8689

Power coefficient["6"] ... 0.850355

Power coefficient["7"] ... 0.876912

Power coefficient["8"] ... 0.849656

Power coefficient["9"] ... 0.866792

Power coefficient["10"] ... 0.84744

Power coefficient["11"] ... 0.872035

Power coefficient["12"] ... 0.848427

Power coefficient["13"] ... 0.871455

Power coefficient["14"] ... 0.84911

Power coefficient["15"] ... 0.866363

Power coefficient["16"] ... 0.848639

Power coefficient["17"] ... 0.868064

smoothSolver:  Solving for Ux, Initial residual = 0.115378, Final residual = 0.00938344, No Iterations 2
smoothSolver:  Solving for Uy, Initial residual = 0.164802, Final residual = 0.0136428, No Iterations 2
GAMG:  Solving for p, Initial residual = 0.271317, Final residual = 0.0211492, No Iterations 3
time step continuity errors : sum local = 7.3084e-05, global = -8.53236e-07, cumulative = -6.22362e-07
smoothSolver:  Solving for epsilon, Initial residual = 0.751573, Final residual = 0.0465888, No Iterations 2
smoothSolver:  Solving for k, Initial residual = 0.71358, Final residual = 0.0585665, No Iterations 2
ExecutionTime = 28.3 s  ClockTime = 28 s

Time = 6

Power coefficient["0"] ... 0.851787

Power coefficient["1"] ... 0.869223

Power coefficient["2"] ... 0.858491

Power coefficient["3"] ... 0.868761

Power coefficient["4"] ... 0.851146

Power coefficient["5"] ... 0.863223

Power coefficient["6"] ... 0.84838

Power coefficient["7"] ... 0.872657

Power coefficient["8"] ... 0.845838

Power coefficient["9"] ... 0.860512

Power coefficient["10"] ... 0.842863

Power coefficient["11"] ... 0.868383

Power coefficient["12"] ... 0.843549

Power coefficient["13"] ... 0.862587

Power coefficient["14"] ... 0.845391

Power coefficient["15"] ... 0.858827

Power coefficient["16"] ... 0.845635

Power coefficient["17"] ... 0.863408

smoothSolver:  Solving for Ux, Initial residual = 0.0907646, Final residual = 0.00788425, No Iterations 2
smoothSolver:  Solving for Uy, Initial residual = 0.123616, Final residual = 0.0105273, No Iterations 2
GAMG:  Solving for p, Initial residual = 0.230299, Final residual = 0.0177628, No Iterations 3
time step continuity errors : sum local = 6.33307e-05, global = -1.17918e-06, cumulative = -1.80154e-06
smoothSolver:  Solving for epsilon, Initial residual = 0.699318, Final residual = 0.0435572, No Iterations 2
smoothSolver:  Solving for k, Initial residual = 0.660123, Final residual = 0.054361, No Iterations 2
ExecutionTime = 31.56 s  ClockTime = 31 s

Time = 7

Power coefficient["0"] ... 0.8344

Power coefficient["1"] ... 0.845983

Power coefficient["2"] ... 0.843078

Power coefficient["3"] ... 0.854541

Power coefficient["4"] ... 0.836946

Power coefficient["5"] ... 0.841455

Power coefficient["6"] ... 0.834079

Power coefficient["7"] ... 0.851349

Power coefficient["8"] ... 0.828628

Power coefficient["9"] ... 0.838835

Power coefficient["10"] ... 0.824687

Power coefficient["11"] ... 0.852953

Power coefficient["12"] ... 0.826971

Power coefficient["13"] ... 0.837907

Power coefficient["14"] ... 0.826953

Power coefficient["15"] ... 0.837633

Power coefficient["16"] ... 0.829698

Power coefficient["17"] ... 0.847233

smoothSolver:  Solving for Ux, Initial residual = 0.0808361, Final residual = 0.00707249, No Iterations 2
smoothSolver:  Solving for Uy, Initial residual = 0.0922062, Final residual = 0.00790219, No Iterations 2
GAMG:  Solving for p, Initial residual = 0.195704, Final residual = 0.0187889, No Iterations 3
time step continuity errors : sum local = 6.89814e-05, global = -1.27163e-06, cumulative = -3.07318e-06
smoothSolver:  Solving for epsilon, Initial residual = 0.648726, Final residual = 0.0405876, No Iterations 2
smoothSolver:  Solving for k, Initial residual = 0.608922, Final residual = 0.0503466, No Iterations 2
ExecutionTime = 34.78 s  ClockTime = 35 s

Time = 8

Power coefficient["0"] ... 0.811629

Power coefficient["1"] ... 0.814557

Power coefficient["2"] ... 0.821351

Power coefficient["3"] ... 0.826726

Power coefficient["4"] ... 0.815623

Power coefficient["5"] ... 0.816023

Power coefficient["6"] ... 0.815279

Power coefficient["7"] ... 0.823142

Power coefficient["8"] ... 0.808612

Power coefficient["9"] ... 0.812883

Power coefficient["10"] ... 0.803857

Power coefficient["11"] ... 0.826578

Power coefficient["12"] ... 0.809406

Power coefficient["13"] ... 0.809659

Power coefficient["14"] ... 0.805315

Power coefficient["15"] ... 0.811833

Power coefficient["16"] ... 0.813389

Power coefficient["17"] ... 0.830759

smoothSolver:  Solving for Ux, Initial residual = 0.0797644, Final residual = 0.00681673, No Iterations 2
smoothSolver:  Solving for Uy, Initial residual = 0.0742769, Final residual = 0.00624774, No Iterations 2
GAMG:  Solving for p, Initial residual = 0.174492, Final residual = 0.0170879, No Iterations 3
time step continuity errors : sum local = 6.39238e-05, global = -9.57433e-07, cumulative = -4.03061e-06
smoothSolver:  Solving for epsilon, Initial residual = 0.600074, Final residual = 0.0376935, No Iterations 2
smoothSolver:  Solving for k, Initial residual = 0.560828, Final residual = 0.0465094, No Iterations 2
ExecutionTime = 38.04 s  ClockTime = 38 s

Time = 9

Power coefficient["0"] ... 0.790353

Power coefficient["1"] ... 0.784882

Power coefficient["2"] ... 0.791231

Power coefficient["3"] ... 0.796122

Power coefficient["4"] ... 0.801108

Power coefficient["5"] ... 0.787247

Power coefficient["6"] ... 0.789798

Power coefficient["7"] ... 0.798056

Power coefficient["8"] ... 0.793842

Power coefficient["9"] ... 0.789887

Power coefficient["10"] ... 0.786635

Power coefficient["11"] ... 0.810232

Power coefficient["12"] ... 0.793271

Power coefficient["13"] ... 0.781132

Power coefficient["14"] ... 0.782266

Power coefficient["15"] ... 0.787535

Power coefficient["16"] ... 0.798473

Power coefficient["17"] ... 0.810886

smoothSolver:  Solving for Ux, Initial residual = 0.0706165, Final residual = 0.00596411, No Iterations 2
smoothSolver:  Solving for Uy, Initial residual = 0.0635843, Final residual = 0.00536921, No Iterations 2
GAMG:  Solving for p, Initial residual = 0.158172, Final residual = 0.0134394, No Iterations 3
time step continuity errors : sum local = 5.15822e-05, global = -1.09013e-06, cumulative = -5.12074e-06
smoothSolver:  Solving for epsilon, Initial residual = 0.55389, Final residual = 0.0349235, No Iterations 2
smoothSolver:  Solving for k, Initial residual = 0.515656, Final residual = 0.0428978, No Iterations 2
ExecutionTime = 41.26 s  ClockTime = 41 s

Time = 10

Power coefficient["0"] ... 0.778834

Power coefficient["1"] ... 0.768603

Power coefficient["2"] ... 0.773419

Power coefficient["3"] ... 0.777894

Power coefficient["4"] ... 0.780874

Power coefficient["5"] ... 0.767135

Power coefficient["6"] ... 0.772845

Power coefficient["7"] ... 0.783429

Power coefficient["8"] ... 0.770279

Power coefficient["9"] ... 0.768034

Power coefficient["10"] ... 0.767436

Power coefficient["11"] ... 0.792979

Power coefficient["12"] ... 0.783908

Power coefficient["13"] ... 0.756314

Power coefficient["14"] ... 0.757122

Power coefficient["15"] ... 0.771303

Power coefficient["16"] ... 0.780411

Power coefficient["17"] ... 0.794937

smoothSolver:  Solving for Ux, Initial residual = 0.0561832, Final residual = 0.00483953, No Iterations 2
smoothSolver:  Solving for Uy, Initial residual = 0.0556566, Final residual = 0.0047388, No Iterations 2
GAMG:  Solving for p, Initial residual = 0.141431, Final residual = 0.0135797, No Iterations 3
time step continuity errors : sum local = 5.13961e-05, global = -6.75656e-07, cumulative = -5.79639e-06
smoothSolver:  Solving for epsilon, Initial residual = 0.510149, Final residual = 0.0322758, No Iterations 2
smoothSolver:  Solving for k, Initial residual = 0.473718, Final residual = 0.0395182, No Iterations 2
ExecutionTime = 44.52 s  ClockTime = 44 s

Time = 11

Power coefficient["0"] ... 0.768126

Power coefficient["1"] ... 0.759265

Power coefficient["2"] ... 0.766324

Power coefficient["3"] ... 0.765558

Power coefficient["4"] ... 0.773177

Power coefficient["5"] ... 0.754791

Power coefficient["6"] ... 0.759621

Power coefficient["7"] ... 0.774052

Power coefficient["8"] ... 0.760419

Power coefficient["9"] ... 0.756979

Power coefficient["10"] ... 0.75535

Power coefficient["11"] ... 0.780812

Power coefficient["12"] ... 0.776855

Power coefficient["13"] ... 0.745704

Power coefficient["14"] ... 0.747754

Power coefficient["15"] ... 0.761998

Power coefficient["16"] ... 0.770704

Power coefficient["17"] ... 0.782898

smoothSolver:  Solving for Ux, Initial residual = 0.0453416, Final residual = 0.00402782, No Iterations 2
smoothSolver:  Solving for Uy, Initial residual = 0.0493214, Final residual = 0.00425857, No Iterations 2
GAMG:  Solving for p, Initial residual = 0.135198, Final residual = 0.00661303, No Iterations 4
time step continuity errors : sum local = 2.39283e-05, global = 2.80039e-06, cumulative = -2.996e-06
smoothSolver:  Solving for epsilon, Initial residual = 0.468727, Final residual = 0.0297532, No Iterations 2
smoothSolver:  Solving for k, Initial residual = 0.434586, Final residual = 0.0363469, No Iterations 2
ExecutionTime = 47.9 s  ClockTime = 48 s

Time = 12

Power coefficient["0"] ... 0.767236

Power coefficient["1"] ... 0.758763

Power coefficient["2"] ... 0.757996

Power coefficient["3"] ... 0.754197

Power coefficient["4"] ... 0.769922

Power coefficient["5"] ... 0.748569

Power coefficient["6"] ... 0.750518

Power coefficient["7"] ... 0.759643

Power coefficient["8"] ... 0.753356

Power coefficient["9"] ... 0.74712

Power coefficient["10"] ... 0.749536

Power coefficient["11"] ... 0.772733

Power coefficient["12"] ... 0.768052

Power coefficient["13"] ... 0.737773

Power coefficient["14"] ... 0.741837

Power coefficient["15"] ... 0.755858

Power coefficient["16"] ... 0.761787

Power coefficient["17"] ... 0.771773

smoothSolver:  Solving for Ux, Initial residual = 0.0415527, Final residual = 0.00377223, No Iterations 2
smoothSolver:  Solving for Uy, Initial residual = 0.046018, Final residual = 0.00402631, No Iterations 2
GAMG:  Solving for p, Initial residual = 0.131323, Final residual = 0.0066013, No Iterations 4
time step continuity errors : sum local = 2.16076e-05, global = 2.37965e-06, cumulative = -6.1635e-07
smoothSolver:  Solving for epsilon, Initial residual = 0.429751, Final residual = 0.0273682, No Iterations 2
smoothSolver:  Solving for k, Initial residual = 0.39803, Final residual = 0.0333779, No Iterations 2
ExecutionTime = 51.31 s  ClockTime = 51 s

Time = 13

Power coefficient["0"] ... 0.76234

Power coefficient["1"] ... 0.753297

Power coefficient["2"] ... 0.751901

Power coefficient["3"] ... 0.745099

Power coefficient["4"] ... 0.763467

Power coefficient["5"] ... 0.735155

Power coefficient["6"] ... 0.742861

Power coefficient["7"] ... 0.744972

Power coefficient["8"] ... 0.745039

Power coefficient["9"] ... 0.733711

Power coefficient["10"] ... 0.739418

Power coefficient["11"] ... 0.757551

Power coefficient["12"] ... 0.762514

Power coefficient["13"] ... 0.730209

Power coefficient["14"] ... 0.736414

Power coefficient["15"] ... 0.750157

Power coefficient["16"] ... 0.754108

Power coefficient["17"] ... 0.757857

smoothSolver:  Solving for Ux, Initial residual = 0.0412173, Final residual = 0.0037403, No Iterations 2
smoothSolver:  Solving for Uy, Initial residual = 0.0438552, Final residual = 0.00384503, No Iterations 2
GAMG:  Solving for p, Initial residual = 0.132167, Final residual = 0.00686088, No Iterations 4
time step continuity errors : sum local = 1.96363e-05, global = 2.00223e-06, cumulative = 1.38588e-06
smoothSolver:  Solving for epsilon, Initial residual = 0.393593, Final residual = 0.0251468, No Iterations 2
smoothSolver:  Solving for k, Initial residual = 0.364332, Final residual = 0.0306314, No Iterations 2
ExecutionTime = 54.69 s  ClockTime = 55 s

Time = 14

Power coefficient["0"] ... 0.752289

Power coefficient["1"] ... 0.738065

Power coefficient["2"] ... 0.741765

Power coefficient["3"] ... 0.73124

Power coefficient["4"] ... 0.75074

Power coefficient["5"] ... 0.717786

Power coefficient["6"] ... 0.7335

Power coefficient["7"] ... 0.73008

Power coefficient["8"] ... 0.734106

Power coefficient["9"] ... 0.720037

Power coefficient["10"] ... 0.726778

Power coefficient["11"] ... 0.741835

Power coefficient["12"] ... 0.752732

Power coefficient["13"] ... 0.718917

Power coefficient["14"] ... 0.723132

Power coefficient["15"] ... 0.741411

Power coefficient["16"] ... 0.741998

Power coefficient["17"] ... 0.741438

smoothSolver:  Solving for Ux, Initial residual = 0.0394073, Final residual = 0.00356007, No Iterations 2
smoothSolver:  Solving for Uy, Initial residual = 0.0403542, Final residual = 0.00353207, No Iterations 2
GAMG:  Solving for p, Initial residual = 0.11664, Final residual = 0.00640719, No Iterations 4
time step continuity errors : sum local = 1.91265e-05, global = 1.00583e-06, cumulative = 2.39171e-06
smoothSolver:  Solving for epsilon, Initial residual = 0.360545, Final residual = 0.0231106, No Iterations 2
smoothSolver:  Solving for k, Initial residual = 0.333662, Final residual = 0.0281269, No Iterations 2
ExecutionTime = 58.12 s  ClockTime = 58 s

Time = 15

Power coefficient["0"] ... 0.732685

Power coefficient["1"] ... 0.720719

Power coefficient["2"] ... 0.728185

Power coefficient["3"] ... 0.714311

Power coefficient["4"] ... 0.731592

Power coefficient["5"] ... 0.701612

Power coefficient["6"] ... 0.722597

Power coefficient["7"] ... 0.715675

Power coefficient["8"] ... 0.721683

Power coefficient["9"] ... 0.70436

Power coefficient["10"] ... 0.713111

Power coefficient["11"] ... 0.724125

Power coefficient["12"] ... 0.735846

Power coefficient["13"] ... 0.704828

Power coefficient["14"] ... 0.707231

Power coefficient["15"] ... 0.727411

Power coefficient["16"] ... 0.722433

Power coefficient["17"] ... 0.722276

smoothSolver:  Solving for Ux, Initial residual = 0.0359269, Final residual = 0.00325193, No Iterations 2
smoothSolver:  Solving for Uy, Initial residual = 0.0366291, Final residual = 0.00321571, No Iterations 2
GAMG:  Solving for p, Initial residual = 0.105466, Final residual = 0.0102469, No Iterations 3
time step continuity errors : sum local = 3.03187e-05, global = -1.54948e-06, cumulative = 8.42231e-07
smoothSolver:  Solving for epsilon, Initial residual = 0.330543, Final residual = 0.021257, No Iterations 2
smoothSolver:  Solving for k, Initial residual = 0.30602, Final residual = 0.025865, No Iterations 2
ExecutionTime = 61.34 s  ClockTime = 61 s

Time = 16

Power coefficient["0"] ... 0.717364

Power coefficient["1"] ... 0.704987

Power coefficient["2"] ... 0.709292

Power coefficient["3"] ... 0.699406

Power coefficient["4"] ... 0.715587

Power coefficient["5"] ... 0.68501

Power coefficient["6"] ... 0.710548

Power coefficient["7"] ... 0.702057

Power coefficient["8"] ... 0.703706

Power coefficient["9"] ... 0.688419

Power coefficient["10"] ... 0.696283

Power coefficient["11"] ... 0.711095

Power coefficient["12"] ... 0.720481

Power coefficient["13"] ... 0.69022

Power coefficient["14"] ... 0.691147

Power coefficient["15"] ... 0.71159

Power coefficient["16"] ... 0.706343

Power coefficient["17"] ... 0.705757

smoothSolver:  Solving for Ux, Initial residual = 0.0320008, Final residual = 0.00293214, No Iterations 2
smoothSolver:  Solving for Uy, Initial residual = 0.0329529, Final residual = 0.00291063, No Iterations 2
GAMG:  Solving for p, Initial residual = 0.101763, Final residual = 0.00566256, No Iterations 4
time step continuity errors : sum local = 1.62489e-05, global = 3.7818e-07, cumulative = 1.22041e-06
smoothSolver:  Solving for epsilon, Initial residual = 0.303342, Final residual = 0.019572, No Iterations 2
smoothSolver:  Solving for k, Initial residual = 0.281172, Final residual = 0.0238276, No Iterations 2
ExecutionTime = 64.77 s  ClockTime = 65 s

Time = 17

Power coefficient["0"] ... 0.705331

Power coefficient["1"] ... 0.692731

Power coefficient["2"] ... 0.698973

Power coefficient["3"] ... 0.68776

Power coefficient["4"] ... 0.703068

Power coefficient["5"] ... 0.673216

Power coefficient["6"] ... 0.699911

Power coefficient["7"] ... 0.692839

Power coefficient["8"] ... 0.69339

Power coefficient["9"] ... 0.677523

Power coefficient["10"] ... 0.685227

Power coefficient["11"] ... 0.699704

Power coefficient["12"] ... 0.709605

Power coefficient["13"] ... 0.679787

Power coefficient["14"] ... 0.679308

Power coefficient["15"] ... 0.700497

Power coefficient["16"] ... 0.692178

Power coefficient["17"] ... 0.692918

smoothSolver:  Solving for Ux, Initial residual = 0.0286328, Final residual = 0.00266705, No Iterations 2
smoothSolver:  Solving for Uy, Initial residual = 0.0295833, Final residual = 0.00263097, No Iterations 2
GAMG:  Solving for p, Initial residual = 0.0987685, Final residual = 0.00898905, No Iterations 3
time step continuity errors : sum local = 2.3902e-05, global = -4.44372e-06, cumulative = -3.22331e-06
smoothSolver:  Solving for epsilon, Initial residual = 0.278602, Final residual = 0.0180343, No Iterations 2
smoothSolver:  Solving for k, Initial residual = 0.258668, Final residual = 0.0219779, No Iterations 2
ExecutionTime = 68.01 s  ClockTime = 68 s

Time = 18

Power coefficient["0"] ... 0.697692

Power coefficient["1"] ... 0.684919

Power coefficient["2"] ... 0.690807

Power coefficient["3"] ... 0.680757

Power coefficient["4"] ... 0.693795

Power coefficient["5"] ... 0.66437

Power coefficient["6"] ... 0.692447

Power coefficient["7"] ... 0.68436

Power coefficient["8"] ... 0.685223

Power coefficient["9"] ... 0.668899

Power coefficient["10"] ... 0.676393

Power coefficient["11"] ... 0.689949

Power coefficient["12"] ... 0.699985

Power coefficient["13"] ... 0.671177

Power coefficient["14"] ... 0.670499

Power coefficient["15"] ... 0.691602

Power coefficient["16"] ... 0.681598

Power coefficient["17"] ... 0.683334

smoothSolver:  Solving for Ux, Initial residual = 0.0266402, Final residual = 0.00250011, No Iterations 2
smoothSolver:  Solving for Uy, Initial residual = 0.0274995, Final residual = 0.00245563, No Iterations 2
GAMG:  Solving for p, Initial residual = 0.0866896, Final residual = 0.00749842, No Iterations 3
time step continuity errors : sum local = 2.07797e-05, global = -3.20166e-06, cumulative = -6.42497e-06
smoothSolver:  Solving for epsilon, Initial residual = 0.256189, Final residual = 0.016636, No Iterations 2
smoothSolver:  Solving for k, Initial residual = 0.238309, Final residual = 0.0203006, No Iterations 2
ExecutionTime = 71.29 s  ClockTime = 71 s

Time = 19

Power coefficient["0"] ... 0.690537

Power coefficient["1"] ... 0.677891

Power coefficient["2"] ... 0.683777

Power coefficient["3"] ... 0.674699

Power coefficient["4"] ... 0.685209

Power coefficient["5"] ... 0.655915

Power coefficient["6"] ... 0.684871

Power coefficient["7"] ... 0.676254

Power coefficient["8"] ... 0.677605

Power coefficient["9"] ... 0.660786

Power coefficient["10"] ... 0.667462

Power coefficient["11"] ... 0.679679

Power coefficient["12"] ... 0.690714

Power coefficient["13"] ... 0.663068

Power coefficient["14"] ... 0.662821

Power coefficient["15"] ... 0.68302

Power coefficient["16"] ... 0.672626

Power coefficient["17"] ... 0.675142

smoothSolver:  Solving for Ux, Initial residual = 0.0247247, Final residual = 0.00233008, No Iterations 2
smoothSolver:  Solving for Uy, Initial residual = 0.0267886, Final residual = 0.00239716, No Iterations 2
GAMG:  Solving for p, Initial residual = 0.0755614, Final residual = 0.00690855, No Iterations 3
time step continuity errors : sum local = 2.01795e-05, global = -2.40663e-06, cumulative = -8.8316e-06
smoothSolver:  Solving for epsilon, Initial residual = 0.235931, Final residual = 0.0153682, No Iterations 2
smoothSolver:  Solving for k, Initial residual = 0.219902, Final residual = 0.01878, No Iterations 2
ExecutionTime = 74.52 s  ClockTime = 74 s

Time = 20

Power coefficient["0"] ... 0.682892

Power coefficient["1"] ... 0.670088

Power coefficient["2"] ... 0.676799

Power coefficient["3"] ... 0.66835

Power coefficient["4"] ... 0.677413

Power coefficient["5"] ... 0.647978

Power coefficient["6"] ... 0.6773

Power coefficient["7"] ... 0.668323

Power coefficient["8"] ... 0.670253

Power coefficient["9"] ... 0.653311

Power coefficient["10"] ... 0.659172

Power coefficient["11"] ... 0.671181

Power coefficient["12"] ... 0.681131

Power coefficient["13"] ... 0.654506

Power coefficient["14"] ... 0.654968

Power coefficient["15"] ... 0.674092

Power coefficient["16"] ... 0.663787

Power coefficient["17"] ... 0.667028

smoothSolver:  Solving for Ux, Initial residual = 0.022999, Final residual = 0.00217288, No Iterations 2
smoothSolver:  Solving for Uy, Initial residual = 0.0265245, Final residual = 0.00237965, No Iterations 2
GAMG:  Solving for p, Initial residual = 0.06563, Final residual = 0.00450794, No Iterations 4
time step continuity errors : sum local = 1.36235e-05, global = 4.53689e-07, cumulative = -8.37791e-06
smoothSolver:  Solving for epsilon, Initial residual = 0.21765, Final residual = 0.0142222, No Iterations 2
smoothSolver:  Solving for k, Initial residual = 0.203298, Final residual = 0.017406, No Iterations 2
ExecutionTime = 77.96 s  ClockTime = 78 s

Time = 21

Power coefficient["0"] ... 0.675265

Power coefficient["1"] ... 0.662153

Power coefficient["2"] ... 0.669418

Power coefficient["3"] ... 0.660696

Power coefficient["4"] ... 0.668562

Power coefficient["5"] ... 0.639261

Power coefficient["6"] ... 0.669665

Power coefficient["7"] ... 0.661019

Power coefficient["8"] ... 0.660257

Power coefficient["9"] ... 0.644531

Power coefficient["10"] ... 0.649617

Power coefficient["11"] ... 0.663165

Power coefficient["12"] ... 0.671947

Power coefficient["13"] ... 0.646652

Power coefficient["14"] ... 0.647725

Power coefficient["15"] ... 0.664535

Power coefficient["16"] ... 0.655574

Power coefficient["17"] ... 0.658916

smoothSolver:  Solving for Ux, Initial residual = 0.0217331, Final residual = 0.00205896, No Iterations 2
smoothSolver:  Solving for Uy, Initial residual = 0.0259244, Final residual = 0.00233128, No Iterations 2
GAMG:  Solving for p, Initial residual = 0.0564231, Final residual = 0.00511994, No Iterations 3
time step continuity errors : sum local = 1.57978e-05, global = -8.12877e-08, cumulative = -8.4592e-06
smoothSolver:  Solving for epsilon, Initial residual = 0.201105, Final residual = 0.013184, No Iterations 2
smoothSolver:  Solving for k, Initial residual = 0.188298, Final residual = 0.0161641, No Iterations 2
ExecutionTime = 81.19 s  ClockTime = 81 s

Time = 22

Power coefficient["0"] ... 0.668257

Power coefficient["1"] ... 0.654673

Power coefficient["2"] ... 0.662465

Power coefficient["3"] ... 0.653013

Power coefficient["4"] ... 0.660409

Power coefficient["5"] ... 0.630898

Power coefficient["6"] ... 0.663249

Power coefficient["7"] ... 0.654313

Power coefficient["8"] ... 0.652467

Power coefficient["9"] ... 0.637221

Power coefficient["10"] ... 0.641679

Power coefficient["11"] ... 0.656286

Power coefficient["12"] ... 0.664652

Power coefficient["13"] ... 0.640139

Power coefficient["14"] ... 0.641467

Power coefficient["15"] ... 0.656173

Power coefficient["16"] ... 0.649113

Power coefficient["17"] ... 0.652253

smoothSolver:  Solving for Ux, Initial residual = 0.0204102, Final residual = 0.00194776, No Iterations 2
smoothSolver:  Solving for Uy, Initial residual = 0.0244948, Final residual = 0.0022101, No Iterations 2
GAMG:  Solving for p, Initial residual = 0.0534097, Final residual = 0.00488412, No Iterations 3
time step continuity errors : sum local = 1.491e-05, global = 2.37268e-09, cumulative = -8.45683e-06
smoothSolver:  Solving for epsilon, Initial residual = 0.186115, Final residual = 0.0122412, No Iterations 2
smoothSolver:  Solving for k, Initial residual = 0.174744, Final residual = 0.0150407, No Iterations 2
ExecutionTime = 84.46 s  ClockTime = 84 s

Time = 23

Power coefficient["0"] ... 0.663329

Power coefficient["1"] ... 0.648695

Power coefficient["2"] ... 0.65686

Power coefficient["3"] ... 0.646939

Power coefficient["4"] ... 0.653993

Power coefficient["5"] ... 0.62479

Power coefficient["6"] ... 0.658285

Power coefficient["7"] ... 0.64878

Power coefficient["8"] ... 0.646016

Power coefficient["9"] ... 0.631251

Power coefficient["10"] ... 0.63579

Power coefficient["11"] ... 0.650744

Power coefficient["12"] ... 0.658954

Power coefficient["13"] ... 0.634979

Power coefficient["14"] ... 0.636783

Power coefficient["15"] ... 0.64912

Power coefficient["16"] ... 0.643521

Power coefficient["17"] ... 0.646731

smoothSolver:  Solving for Ux, Initial residual = 0.0193825, Final residual = 0.00186342, No Iterations 2
smoothSolver:  Solving for Uy, Initial residual = 0.0229, Final residual = 0.00207334, No Iterations 2
GAMG:  Solving for p, Initial residual = 0.0495504, Final residual = 0.00482735, No Iterations 3
time step continuity errors : sum local = 1.43236e-05, global = 5.62132e-07, cumulative = -7.8947e-06
smoothSolver:  Solving for epsilon, Initial residual = 0.172503, Final residual = 0.0113824, No Iterations 2
smoothSolver:  Solving for k, Initial residual = 0.16245, Final residual = 0.0140196, No Iterations 2
ExecutionTime = 87.69 s  ClockTime = 88 s

Time = 24

Power coefficient["0"] ... 0.660014

Power coefficient["1"] ... 0.644729

Power coefficient["2"] ... 0.652825

Power coefficient["3"] ... 0.642574

Power coefficient["4"] ... 0.649293

Power coefficient["5"] ... 0.620159

Power coefficient["6"] ... 0.654103

Power coefficient["7"] ... 0.644181

Power coefficient["8"] ... 0.640761

Power coefficient["9"] ... 0.626385

Power coefficient["10"] ... 0.631004

Power coefficient["11"] ... 0.646297

Power coefficient["12"] ... 0.654298

Power coefficient["13"] ... 0.630607

Power coefficient["14"] ... 0.633066

Power coefficient["15"] ... 0.643391

Power coefficient["16"] ... 0.638836

Power coefficient["17"] ... 0.64215

smoothSolver:  Solving for Ux, Initial residual = 0.019077, Final residual = 0.0018392, No Iterations 2
smoothSolver:  Solving for Uy, Initial residual = 0.0214962, Final residual = 0.00195152, No Iterations 2
GAMG:  Solving for p, Initial residual = 0.0451418, Final residual = 0.00308912, No Iterations 5
time step continuity errors : sum local = 8.76871e-06, global = 2.96237e-07, cumulative = -7.59846e-06
smoothSolver:  Solving for epsilon, Initial residual = 0.160134, Final residual = 0.0105998, No Iterations 2
smoothSolver:  Solving for k, Initial residual = 0.15126, Final residual = 0.0130882, No Iterations 2
ExecutionTime = 91.28 s  ClockTime = 91 s

Time = 25

Power coefficient["0"] ... 0.657276

Power coefficient["1"] ... 0.641622

Power coefficient["2"] ... 0.649534

Power coefficient["3"] ... 0.639196

Power coefficient["4"] ... 0.64557

Power coefficient["5"] ... 0.616249

Power coefficient["6"] ... 0.650132

Power coefficient["7"] ... 0.639893

Power coefficient["8"] ... 0.636101

Power coefficient["9"] ... 0.622122

Power coefficient["10"] ... 0.626608

Power coefficient["11"] ... 0.642046

Power coefficient["12"] ... 0.650235

Power coefficient["13"] ... 0.626464

Power coefficient["14"] ... 0.629802

Power coefficient["15"] ... 0.638851

Power coefficient["16"] ... 0.634617

Power coefficient["17"] ... 0.637945

smoothSolver:  Solving for Ux, Initial residual = 0.019006, Final residual = 0.00183439, No Iterations 2
smoothSolver:  Solving for Uy, Initial residual = 0.020029, Final residual = 0.00182455, No Iterations 2
GAMG:  Solving for p, Initial residual = 0.0450914, Final residual = 0.00415932, No Iterations 3
time step continuity errors : sum local = 1.05559e-05, global = 8.69123e-07, cumulative = -6.72934e-06
smoothSolver:  Solving for epsilon, Initial residual = 0.148893, Final residual = 0.00988714, No Iterations 2
smoothSolver:  Solving for k, Initial residual = 0.141066, Final residual = 0.0122381, No Iterations 2
ExecutionTime = 94.51 s  ClockTime = 94 s

Time = 26

Power coefficient["0"] ... 0.653637

Power coefficient["1"] ... 0.637924

Power coefficient["2"] ... 0.646229

Power coefficient["3"] ... 0.635649

Power coefficient["4"] ... 0.641949

Power coefficient["5"] ... 0.612232

Power coefficient["6"] ... 0.645832

Power coefficient["7"] ... 0.635595

Power coefficient["8"] ... 0.631732

Power coefficient["9"] ... 0.61788

Power coefficient["10"] ... 0.622276

Power coefficient["11"] ... 0.637684

Power coefficient["12"] ... 0.646264

Power coefficient["13"] ... 0.622118

Power coefficient["14"] ... 0.62644

Power coefficient["15"] ... 0.634587

Power coefficient["16"] ... 0.630315

Power coefficient["17"] ... 0.633614

smoothSolver:  Solving for Ux, Initial residual = 0.0182478, Final residual = 0.00176604, No Iterations 2
smoothSolver:  Solving for Uy, Initial residual = 0.019385, Final residual = 0.0017709, No Iterations 2
GAMG:  Solving for p, Initial residual = 0.0433506, Final residual = 0.00289386, No Iterations 5
time step continuity errors : sum local = 7.02776e-06, global = -7.70989e-08, cumulative = -6.80644e-06
smoothSolver:  Solving for epsilon, Initial residual = 0.138663, Final residual = 0.00923769, No Iterations 2
smoothSolver:  Solving for k, Initial residual = 0.131776, Final residual = 0.0114625, No Iterations 2
ExecutionTime = 98.09 s  ClockTime = 98 s

Time = 27

Power coefficient["0"] ... 0.649162

Power coefficient["1"] ... 0.63339

Power coefficient["2"] ... 0.64299

Power coefficient["3"] ... 0.631034

Power coefficient["4"] ... 0.638022

Power coefficient["5"] ... 0.607982

Power coefficient["6"] ... 0.641385

Power coefficient["7"] ... 0.631518

Power coefficient["8"] ... 0.627473

Power coefficient["9"] ... 0.613621

Power coefficient["10"] ... 0.617961

Power coefficient["11"] ... 0.633404

Power coefficient["12"] ... 0.642491

Power coefficient["13"] ... 0.617546

Power coefficient["14"] ... 0.62266

Power coefficient["15"] ... 0.630192

Power coefficient["16"] ... 0.625907

Power coefficient["17"] ... 0.629215

smoothSolver:  Solving for Ux, Initial residual = 0.0174018, Final residual = 0.00169094, No Iterations 2
smoothSolver:  Solving for Uy, Initial residual = 0.0187592, Final residual = 0.00171855, No Iterations 2
GAMG:  Solving for p, Initial residual = 0.038454, Final residual = 0.00365661, No Iterations 4
time step continuity errors : sum local = 8.7647e-06, global = 4.43167e-07, cumulative = -6.36327e-06
smoothSolver:  Solving for epsilon, Initial residual = 0.129341, Final residual = 0.00864488, No Iterations 2
smoothSolver:  Solving for k, Initial residual = 0.123309, Final residual = 0.0107549, No Iterations 2
ExecutionTime = 101.46 s  ClockTime = 101 s

Time = 28

Power coefficient["0"] ... 0.644904

Power coefficient["1"] ... 0.628818

Power coefficient["2"] ... 0.639619

Power coefficient["3"] ... 0.626285

Power coefficient["4"] ... 0.633947

Power coefficient["5"] ... 0.60376

Power coefficient["6"] ... 0.637863

Power coefficient["7"] ... 0.627651

Power coefficient["8"] ... 0.623252

Power coefficient["9"] ... 0.609389

Power coefficient["10"] ... 0.614002

Power coefficient["11"] ... 0.629531

Power coefficient["12"] ... 0.63911

Power coefficient["13"] ... 0.613501

Power coefficient["14"] ... 0.619199

Power coefficient["15"] ... 0.625906

Power coefficient["16"] ... 0.621665

Power coefficient["17"] ... 0.624995

smoothSolver:  Solving for Ux, Initial residual = 0.0168183, Final residual = 0.00164053, No Iterations 2
smoothSolver:  Solving for Uy, Initial residual = 0.0180982, Final residual = 0.00166247, No Iterations 2
GAMG:  Solving for p, Initial residual = 0.0355488, Final residual = 0.00353977, No Iterations 3
time step continuity errors : sum local = 8.39287e-06, global = -1.10127e-06, cumulative = -7.46454e-06
smoothSolver:  Solving for epsilon, Initial residual = 0.120815, Final residual = 0.00810154, No Iterations 2
smoothSolver:  Solving for k, Initial residual = 0.115563, Final residual = 0.0101066, No Iterations 2
ExecutionTime = 104.74 s  ClockTime = 105 s

Time = 29

Power coefficient["0"] ... 0.641185

Power coefficient["1"] ... 0.624798

Power coefficient["2"] ... 0.636791

Power coefficient["3"] ... 0.62186

Power coefficient["4"] ... 0.630156

Power coefficient["5"] ... 0.600054

Power coefficient["6"] ... 0.634014

Power coefficient["7"] ... 0.624401

Power coefficient["8"] ... 0.619419

Power coefficient["9"] ... 0.605629

Power coefficient["10"] ... 0.61058

Power coefficient["11"] ... 0.626093

Power coefficient["12"] ... 0.63615

Power coefficient["13"] ... 0.610024

Power coefficient["14"] ... 0.616284

Power coefficient["15"] ... 0.622006

Power coefficient["16"] ... 0.618152

Power coefficient["17"] ... 0.621314

smoothSolver:  Solving for Ux, Initial residual = 0.0159799, Final residual = 0.00156841, No Iterations 2
smoothSolver:  Solving for Uy, Initial residual = 0.0174004, Final residual = 0.00160204, No Iterations 2
GAMG:  Solving for p, Initial residual = 0.033445, Final residual = 0.00264965, No Iterations 5
time step continuity errors : sum local = 6.25071e-06, global = -5.40103e-07, cumulative = -8.00464e-06
smoothSolver:  Solving for epsilon, Initial residual = 0.113015, Final residual = 0.00760308, No Iterations 2
smoothSolver:  Solving for k, Initial residual = 0.108471, Final residual = 0.00951181, No Iterations 2
ExecutionTime = 108.26 s  ClockTime = 108 s

Time = 30

Power coefficient["0"] ... 0.638478

Power coefficient["1"] ... 0.621971

Power coefficient["2"] ... 0.634374

Power coefficient["3"] ... 0.618221

Power coefficient["4"] ... 0.626921

Power coefficient["5"] ... 0.596966

Power coefficient["6"] ... 0.63068

Power coefficient["7"] ... 0.621558

Power coefficient["8"] ... 0.616043

Power coefficient["9"] ... 0.602397

Power coefficient["10"] ... 0.607604

Power coefficient["11"] ... 0.623098

Power coefficient["12"] ... 0.633647

Power coefficient["13"] ... 0.606991

Power coefficient["14"] ... 0.613905

Power coefficient["15"] ... 0.618687

Power coefficient["16"] ... 0.615281

Power coefficient["17"] ... 0.618173

smoothSolver:  Solving for Ux, Initial residual = 0.0150508, Final residual = 0.00148841, No Iterations 2
smoothSolver:  Solving for Uy, Initial residual = 0.0166382, Final residual = 0.0015374, No Iterations 2
GAMG:  Solving for p, Initial residual = 0.0268992, Final residual = 0.00238577, No Iterations 5
time step continuity errors : sum local = 6.08765e-06, global = 5.33441e-07, cumulative = -7.4712e-06
smoothSolver:  Solving for epsilon, Initial residual = 0.105866, Final residual = 0.00714529, No Iterations 2
smoothSolver:  Solving for k, Initial residual = 0.101959, Final residual = 0.00896461, No Iterations 2
ExecutionTime = 111.84 s  ClockTime = 112 s

Time = 31

Power coefficient["0"] ... 0.636336

Power coefficient["1"] ... 0.61993

Power coefficient["2"] ... 0.632289

Power coefficient["3"] ... 0.615355

Power coefficient["4"] ... 0.624172

Power coefficient["5"] ... 0.594397

Power coefficient["6"] ... 0.627682

Power coefficient["7"] ... 0.618857

Power coefficient["8"] ... 0.613

Power coefficient["9"] ... 0.599548

Power coefficient["10"] ... 0.604846

Power coefficient["11"] ... 0.620326

Power coefficient["12"] ... 0.631427

Power coefficient["13"] ... 0.604186

Power coefficient["14"] ... 0.611825

Power coefficient["15"] ... 0.615838

Power coefficient["16"] ... 0.612792

Power coefficient["17"] ... 0.615446

smoothSolver:  Solving for Ux, Initial residual = 0.0144982, Final residual = 0.00143862, No Iterations 2
smoothSolver:  Solving for Uy, Initial residual = 0.0163549, Final residual = 0.00151444, No Iterations 2
GAMG:  Solving for p, Initial residual = 0.0232316, Final residual = 0.00177515, No Iterations 5
time step continuity errors : sum local = 4.72916e-06, global = -3.46469e-07, cumulative = -7.81767e-06
smoothSolver:  Solving for epsilon, Initial residual = 0.0993043, Final residual = 0.00672422, No Iterations 2
smoothSolver:  Solving for k, Initial residual = 0.0959675, Final residual = 0.00846026, No Iterations 2
ExecutionTime = 115.37 s  ClockTime = 115 s

Time = 32

Power coefficient["0"] ... 0.634265

Power coefficient["1"] ... 0.618023

Power coefficient["2"] ... 0.630296

Power coefficient["3"] ... 0.612717

Power coefficient["4"] ... 0.621678

Power coefficient["5"] ... 0.59194

Power coefficient["6"] ... 0.624741

Power coefficient["7"] ... 0.616216

Power coefficient["8"] ... 0.610154

Power coefficient["9"] ... 0.596855

Power coefficient["10"] ... 0.602098

Power coefficient["11"] ... 0.61765

Power coefficient["12"] ... 0.629279

Power coefficient["13"] ... 0.601466

Power coefficient["14"] ... 0.609853

Power coefficient["15"] ... 0.613156

Power coefficient["16"] ... 0.610358

Power coefficient["17"] ... 0.612785

smoothSolver:  Solving for Ux, Initial residual = 0.0139149, Final residual = 0.00138497, No Iterations 2
smoothSolver:  Solving for Uy, Initial residual = 0.0162683, Final residual = 0.0015084, No Iterations 2
GAMG:  Solving for p, Initial residual = 0.0204951, Final residual = 0.00153513, No Iterations 5
time step continuity errors : sum local = 4.19657e-06, global = -4.75502e-07, cumulative = -8.29318e-06
smoothSolver:  Solving for epsilon, Initial residual = 0.0932793, Final residual = 0.00633699, No Iterations 2
smoothSolver:  Solving for k, Initial residual = 0.0904549, Final residual = 0.00799566, No Iterations 2
ExecutionTime = 118.94 s  ClockTime = 119 s

Time = 33

Power coefficient["0"] ... 0.631978

Power coefficient["1"] ... 0.615795

Power coefficient["2"] ... 0.628231

Power coefficient["3"] ... 0.609999

Power coefficient["4"] ... 0.61914

Power coefficient["5"] ... 0.589321

Power coefficient["6"] ... 0.621855

Power coefficient["7"] ... 0.613605

Power coefficient["8"] ... 0.607377

Power coefficient["9"] ... 0.594191

Power coefficient["10"] ... 0.599346

Power coefficient["11"] ... 0.614993

Power coefficient["12"] ... 0.627159

Power coefficient["13"] ... 0.59879

Power coefficient["14"] ... 0.607855

Power coefficient["15"] ... 0.610507

Power coefficient["16"] ... 0.607865

Power coefficient["17"] ... 0.610071

smoothSolver:  Solving for Ux, Initial residual = 0.0136052, Final residual = 0.00135579, No Iterations 2
smoothSolver:  Solving for Uy, Initial residual = 0.0160646, Final residual = 0.00149096, No Iterations 2
GAMG:  Solving for p, Initial residual = 0.0180423, Final residual = 0.0011637, No Iterations 5
time step continuity errors : sum local = 3.12891e-06, global = 4.04916e-07, cumulative = -7.88826e-06
smoothSolver:  Solving for epsilon, Initial residual = 0.0877416, Final residual = 0.00598041, No Iterations 2
smoothSolver:  Solving for k, Initial residual = 0.0853794, Final residual = 0.00756731, No Iterations 2
ExecutionTime = 122.47 s  ClockTime = 122 s

Time = 34

Power coefficient["0"] ... 0.629624

Power coefficient["1"] ... 0.613416

Power coefficient["2"] ... 0.626123

Power coefficient["3"] ... 0.607223

Power coefficient["4"] ... 0.616509

Power coefficient["5"] ... 0.586666

Power coefficient["6"] ... 0.619079

Power coefficient["7"] ... 0.61106

Power coefficient["8"] ... 0.604648

Power coefficient["9"] ... 0.59155

Power coefficient["10"] ... 0.596881

Power coefficient["11"] ... 0.612412

Power coefficient["12"] ... 0.625153

Power coefficient["13"] ... 0.596202

Power coefficient["14"] ... 0.605846

Power coefficient["15"] ... 0.608033

Power coefficient["16"] ... 0.605362

Power coefficient["17"] ... 0.607349

smoothSolver:  Solving for Ux, Initial residual = 0.0133651, Final residual = 0.00133406, No Iterations 2
smoothSolver:  Solving for Uy, Initial residual = 0.0156669, Final residual = 0.00145626, No Iterations 2
GAMG:  Solving for p, Initial residual = 0.0175017, Final residual = 0.00109545, No Iterations 6
time step continuity errors : sum local = 2.82842e-06, global = 9.62235e-07, cumulative = -6.92602e-06
smoothSolver:  Solving for epsilon, Initial residual = 0.0826371, Final residual = 0.00565104, No Iterations 2
smoothSolver:  Solving for k, Initial residual = 0.0806925, Final residual = 0.00717118, No Iterations 2
ExecutionTime = 126.2 s  ClockTime = 126 s

Time = 35

Power coefficient["0"] ... 0.627545

Power coefficient["1"] ... 0.611285

Power coefficient["2"] ... 0.624269

Power coefficient["3"] ... 0.604617

Power coefficient["4"] ... 0.613981

Power coefficient["5"] ... 0.58415

Power coefficient["6"] ... 0.616474

Power coefficient["7"] ... 0.608903

Power coefficient["8"] ... 0.602028

Power coefficient["9"] ... 0.589041

Power coefficient["10"] ... 0.594593

Power coefficient["11"] ... 0.609983

Power coefficient["12"] ... 0.623266

Power coefficient["13"] ... 0.593782

Power coefficient["14"] ... 0.603916

Power coefficient["15"] ... 0.605652

Power coefficient["16"] ... 0.602969

Power coefficient["17"] ... 0.604745

smoothSolver:  Solving for Ux, Initial residual = 0.012903, Final residual = 0.000414563, No Iterations 3
smoothSolver:  Solving for Uy, Initial residual = 0.0150269, Final residual = 0.00140062, No Iterations 2
GAMG:  Solving for p, Initial residual = 0.0173716, Final residual = 0.00152185, No Iterations 6
time step continuity errors : sum local = 3.83514e-06, global = 1.04464e-06, cumulative = -5.88138e-06
smoothSolver:  Solving for epsilon, Initial residual = 0.0779376, Final residual = 0.00534752, No Iterations 2
smoothSolver:  Solving for k, Initial residual = 0.07637, Final residual = 0.00680571, No Iterations 2
ExecutionTime = 130.12 s  ClockTime = 130 s

Time = 36

Power coefficient["0"] ... 0.62573

Power coefficient["1"] ... 0.609468

Power coefficient["2"] ... 0.622525

Power coefficient["3"] ... 0.602161

Power coefficient["4"] ... 0.611546

Power coefficient["5"] ... 0.581765

Power coefficient["6"] ... 0.613889

Power coefficient["7"] ... 0.606862

Power coefficient["8"] ... 0.599394

Power coefficient["9"] ... 0.586583

Power coefficient["10"] ... 0.592379

Power coefficient["11"] ... 0.607625

Power coefficient["12"] ... 0.621422

Power coefficient["13"] ... 0.591389

Power coefficient["14"] ... 0.602011

Power coefficient["15"] ... 0.603328

Power coefficient["16"] ... 0.600611

Power coefficient["17"] ... 0.602196

smoothSolver:  Solving for Ux, Initial residual = 0.0125053, Final residual = 0.000403784, No Iterations 3
smoothSolver:  Solving for Uy, Initial residual = 0.0146465, Final residual = 0.00137016, No Iterations 2
GAMG:  Solving for p, Initial residual = 0.0161758, Final residual = 0.00136827, No Iterations 8
time step continuity errors : sum local = 3.37898e-06, global = 6.76786e-07, cumulative = -5.2046e-06
smoothSolver:  Solving for epsilon, Initial residual = 0.0735912, Final residual = 0.00506616, No Iterations 2
smoothSolver:  Solving for k, Initial residual = 0.0723617, Final residual = 0.00646613, No Iterations 2
ExecutionTime = 134.57 s  ClockTime = 134 s

Time = 37

Power coefficient["0"] ... 0.624231

Power coefficient["1"] ... 0.608024

Power coefficient["2"] ... 0.620984

Power coefficient["3"] ... 0.599996

Power coefficient["4"] ... 0.609431

Power coefficient["5"] ... 0.579736

Power coefficient["6"] ... 0.611495

Power coefficient["7"] ... 0.605041

Power coefficient["8"] ... 0.597

Power coefficient["9"] ... 0.584362

Power coefficient["10"] ... 0.590421

Power coefficient["11"] ... 0.605512

Power coefficient["12"] ... 0.619774

Power coefficient["13"] ... 0.589159

Power coefficient["14"] ... 0.600304

Power coefficient["15"] ... 0.60128

Power coefficient["16"] ... 0.598499

Power coefficient["17"] ... 0.599898

smoothSolver:  Solving for Ux, Initial residual = 0.0121933, Final residual = 0.000395379, No Iterations 3
smoothSolver:  Solving for Uy, Initial residual = 0.0142478, Final residual = 0.0013375, No Iterations 2
GAMG:  Solving for p, Initial residual = 0.0149733, Final residual = 0.00128275, No Iterations 6
time step continuity errors : sum local = 3.09183e-06, global = 1.10645e-06, cumulative = -4.09815e-06
smoothSolver:  Solving for epsilon, Initial residual = 0.0695673, Final residual = 0.00480526, No Iterations 2
smoothSolver:  Solving for k, Initial residual = 0.0686411, Final residual = 0.00615047, No Iterations 2
ExecutionTime = 138.32 s  ClockTime = 138 s

Time = 38

Power coefficient["0"] ... 0.622788

Power coefficient["1"] ... 0.606684

Power coefficient["2"] ... 0.619517

Power coefficient["3"] ... 0.597924

Power coefficient["4"] ... 0.607369

Power coefficient["5"] ... 0.577855

Power coefficient["6"] ... 0.609183

Power coefficient["7"] ... 0.603302

Power coefficient["8"] ... 0.594717

Power coefficient["9"] ... 0.582241

Power coefficient["10"] ... 0.588561

Power coefficient["11"] ... 0.603447

Power coefficient["12"] ... 0.618198

Power coefficient["13"] ... 0.586977

Power coefficient["14"] ... 0.598692

Power coefficient["15"] ... 0.599383

Power coefficient["16"] ... 0.596083

Power coefficient["17"] ... 0.59692

smoothSolver:  Solving for Ux, Initial residual = 0.0118284, Final residual = 0.000385888, No Iterations 3
smoothSolver:  Solving for Uy, Initial residual = 0.0137776, Final residual = 0.00129646, No Iterations 2
GAMG:  Solving for p, Initial residual = 0.0138542, Final residual = 0.00129054, No Iterations 4
time step continuity errors : sum local = 3.094e-06, global = 8.19848e-07, cumulative = -3.2783e-06
smoothSolver:  Solving for epsilon, Initial residual = 0.0658398, Final residual = 0.00456324, No Iterations 2
smoothSolver:  Solving for k, Initial residual = 0.0651854, Final residual = 0.0058569, No Iterations 2
ExecutionTime = 142.38 s  ClockTime = 142 s

Time = 39

Power coefficient["0"] ... 0.621267

Power coefficient["1"] ... 0.605276

Power coefficient["2"] ... 0.618012

Power coefficient["3"] ... 0.59581

Power coefficient["4"] ... 0.605004

Power coefficient["5"] ... 0.575948

Power coefficient["6"] ... 0.606903

Power coefficient["7"] ... 0.601576

Power coefficient["8"] ... 0.592441

Power coefficient["9"] ... 0.58012

Power coefficient["10"] ... 0.586696

Power coefficient["11"] ... 0.601079

Power coefficient["12"] ... 0.616613

Power coefficient["13"] ... 0.584796

Power coefficient["14"] ... 0.59709

Power coefficient["15"] ... 0.597503

Power coefficient["16"] ... 0.593728

Power coefficient["17"] ... 0.593983

smoothSolver:  Solving for Ux, Initial residual = 0.0115053, Final residual = 0.000377581, No Iterations 3
smoothSolver:  Solving for Uy, Initial residual = 0.0133073, Final residual = 0.00125408, No Iterations 2
GAMG:  Solving for p, Initial residual = 0.0127184, Final residual = 0.00107093, No Iterations 5
time step continuity errors : sum local = 2.55723e-06, global = -2.59169e-07, cumulative = -3.53747e-06
smoothSolver:  Solving for epsilon, Initial residual = 0.062378, Final residual = 0.00433816, No Iterations 2
smoothSolver:  Solving for k, Initial residual = 0.0619681, Final residual = 0.00558326, No Iterations 2
ExecutionTime = 145.99 s  ClockTime = 146 s

Time = 40

Power coefficient["0"] ... 0.619694

Power coefficient["1"] ... 0.60379

Power coefficient["2"] ... 0.616032

Power coefficient["3"] ... 0.593647

Power coefficient["4"] ... 0.602666

Power coefficient["5"] ... 0.573967

Power coefficient["6"] ... 0.604818

Power coefficient["7"] ... 0.599611

Power coefficient["8"] ... 0.590174

Power coefficient["9"] ... 0.578003

Power coefficient["10"] ... 0.584815

Power coefficient["11"] ... 0.598849

Power coefficient["12"] ... 0.61501

Power coefficient["13"] ... 0.582623

Power coefficient["14"] ... 0.595465

Power coefficient["15"] ... 0.59561

Power coefficient["16"] ... 0.591412

Power coefficient["17"] ... 0.591204

smoothSolver:  Solving for Ux, Initial residual = 0.0111723, Final residual = 0.000368745, No Iterations 3
smoothSolver:  Solving for Uy, Initial residual = 0.0129144, Final residual = 0.0012187, No Iterations 2
GAMG:  Solving for p, Initial residual = 0.0118303, Final residual = 0.00100101, No Iterations 7
time step continuity errors : sum local = 2.4006e-06, global = -9.73835e-09, cumulative = -3.54721e-06
smoothSolver:  Solving for epsilon, Initial residual = 0.0591634, Final residual = 0.00412874, No Iterations 2
smoothSolver:  Solving for k, Initial residual = 0.0589724, Final residual = 0.00532806, No Iterations 2
ExecutionTime = 150 s  ClockTime = 150 s

Time = 41

Power coefficient["0"] ... 0.618192

Power coefficient["1"] ... 0.602352

Power coefficient["2"] ... 0.613614

Power coefficient["3"] ... 0.591547

Power coefficient["4"] ... 0.600321

Power coefficient["5"] ... 0.571751

Power coefficient["6"] ... 0.602944

Power coefficient["7"] ... 0.597612

Power coefficient["8"] ... 0.588007

Power coefficient["9"] ... 0.575984

Power coefficient["10"] ... 0.582623

Power coefficient["11"] ... 0.596678

Power coefficient["12"] ... 0.613485

Power coefficient["13"] ... 0.580523

Power coefficient["14"] ... 0.59386

Power coefficient["15"] ... 0.593901

Power coefficient["16"] ... 0.588905

Power coefficient["17"] ... 0.588339

smoothSolver:  Solving for Ux, Initial residual = 0.0108474, Final residual = 0.000359241, No Iterations 3
smoothSolver:  Solving for Uy, Initial residual = 0.0128419, Final residual = 0.00121336, No Iterations 2
GAMG:  Solving for p, Initial residual = 0.01086, Final residual = 0.000922302, No Iterations 5
time step continuity errors : sum local = 2.27798e-06, global = 9.51093e-08, cumulative = -3.4521e-06
smoothSolver:  Solving for epsilon, Initial residual = 0.0561726, Final residual = 0.00393356, No Iterations 2
smoothSolver:  Solving for k, Initial residual = 0.056177, Final residual = 0.00508956, No Iterations 2
ExecutionTime = 153.54 s  ClockTime = 153 s

Time = 42

Power coefficient["0"] ... 0.616928

Power coefficient["1"] ... 0.601127

Power coefficient["2"] ... 0.611592

Power coefficient["3"] ... 0.589652

Power coefficient["4"] ... 0.598103

Power coefficient["5"] ... 0.569486

Power coefficient["6"] ... 0.601239

Power coefficient["7"] ... 0.595854

Power coefficient["8"] ... 0.586005

Power coefficient["9"] ... 0.574153

Power coefficient["10"] ... 0.58059

Power coefficient["11"] ... 0.594621

Power coefficient["12"] ... 0.612028

Power coefficient["13"] ... 0.578564

Power coefficient["14"] ... 0.592347

Power coefficient["15"] ... 0.592221

Power coefficient["16"] ... 0.586248

Power coefficient["17"] ... 0.585189

smoothSolver:  Solving for Ux, Initial residual = 0.0105888, Final residual = 0.000351741, No Iterations 3
smoothSolver:  Solving for Uy, Initial residual = 0.0127589, Final residual = 0.00120756, No Iterations 2
GAMG:  Solving for p, Initial residual = 0.00980689, Final residual = 0.000787711, No Iterations 5
time step continuity errors : sum local = 1.95546e-06, global = -1.77081e-07, cumulative = -3.62918e-06
smoothSolver:  Solving for epsilon, Initial residual = 0.0533853, Final residual = 0.00375134, No Iterations 2
smoothSolver:  Solving for k, Initial residual = 0.0535638, Final residual = 0.00486624, No Iterations 2
ExecutionTime = 157.15 s  ClockTime = 157 s

Time = 43

Power coefficient["0"] ... 0.615867

Power coefficient["1"] ... 0.600113

Power coefficient["2"] ... 0.609702

Power coefficient["3"] ... 0.587964

Power coefficient["4"] ... 0.596053

Power coefficient["5"] ... 0.567491

Power coefficient["6"] ... 0.599653

Power coefficient["7"] ... 0.594152

Power coefficient["8"] ... 0.584155

Power coefficient["9"] ... 0.572487

Power coefficient["10"] ... 0.5787

Power coefficient["11"] ... 0.592691

Power coefficient["12"] ... 0.610665

Power coefficient["13"] ... 0.576723

Power coefficient["14"] ... 0.590928

Power coefficient["15"] ... 0.590656

Power coefficient["16"] ... 0.58386

Power coefficient["17"] ... 0.582358

smoothSolver:  Solving for Ux, Initial residual = 0.010274, Final residual = 0.000342929, No Iterations 3
smoothSolver:  Solving for Uy, Initial residual = 0.0125693, Final residual = 0.00119204, No Iterations 2
GAMG:  Solving for p, Initial residual = 0.00899033, Final residual = 0.000806259, No Iterations 5
time step continuity errors : sum local = 2.0193e-06, global = -2.17309e-07, cumulative = -3.84649e-06
smoothSolver:  Solving for epsilon, Initial residual = 0.0507892, Final residual = 0.00358129, No Iterations 2
smoothSolver:  Solving for k, Initial residual = 0.0511227, Final residual = 0.00465727, No Iterations 2
ExecutionTime = 160.78 s  ClockTime = 161 s

Time = 44

Power coefficient["0"] ... 0.614914

Power coefficient["1"] ... 0.59924

Power coefficient["2"] ... 0.607934

Power coefficient["3"] ... 0.586452

Power coefficient["4"] ... 0.594331

Power coefficient["5"] ... 0.565667

Power coefficient["6"] ... 0.598158

Power coefficient["7"] ... 0.592532

Power coefficient["8"] ... 0.582583

Power coefficient["9"] ... 0.570971

Power coefficient["10"] ... 0.576886

Power coefficient["11"] ... 0.590918

Power coefficient["12"] ... 0.609384

Power coefficient["13"] ... 0.574983

Power coefficient["14"] ... 0.58959

Power coefficient["15"] ... 0.589193

Power coefficient["16"] ... 0.5816

Power coefficient["17"] ... 0.579691

smoothSolver:  Solving for Ux, Initial residual = 0.0099768, Final residual = 0.000334838, No Iterations 3
smoothSolver:  Solving for Uy, Initial residual = 0.0122633, Final residual = 0.00116536, No Iterations 2
GAMG:  Solving for p, Initial residual = 0.00819734, Final residual = 0.000771417, No Iterations 7
time step continuity errors : sum local = 1.93893e-06, global = -2.15127e-07, cumulative = -4.06162e-06
smoothSolver:  Solving for epsilon, Initial residual = 0.0483648, Final residual = 0.00342226, No Iterations 2
smoothSolver:  Solving for k, Initial residual = 0.0488369, Final residual = 0.00446135, No Iterations 2
ExecutionTime = 164.8 s  ClockTime = 165 s

Time = 45

Power coefficient["0"] ... 0.614011

Power coefficient["1"] ... 0.598424

Power coefficient["2"] ... 0.606351

Power coefficient["3"] ... 0.585027

Power coefficient["4"] ... 0.592745

Power coefficient["5"] ... 0.563931

Power coefficient["6"] ... 0.596703

Power coefficient["7"] ... 0.590972

Power coefficient["8"] ... 0.581068

Power coefficient["9"] ... 0.569489

Power coefficient["10"] ... 0.575108

Power coefficient["11"] ... 0.589237

Power coefficient["12"] ... 0.607623

Power coefficient["13"] ... 0.573296

Power coefficient["14"] ... 0.588286

Power coefficient["15"] ... 0.587512

Power coefficient["16"] ... 0.579412

Power coefficient["17"] ... 0.577128

smoothSolver:  Solving for Ux, Initial residual = 0.009723, Final residual = 0.000328183, No Iterations 3
smoothSolver:  Solving for Uy, Initial residual = 0.0118527, Final residual = 0.00112877, No Iterations 2
GAMG:  Solving for p, Initial residual = 0.00789698, Final residual = 0.000651904, No Iterations 7
time step continuity errors : sum local = 1.62772e-06, global = 3.0348e-07, cumulative = -3.75814e-06
smoothSolver:  Solving for epsilon, Initial residual = 0.0461023, Final residual = 0.00327358, No Iterations 2
smoothSolver:  Solving for k, Initial residual = 0.0466981, Final residual = 0.00427776, No Iterations 2
ExecutionTime = 168.67 s  ClockTime = 169 s

Time = 46

Power coefficient["0"] ... 0.613145

Power coefficient["1"] ... 0.59761

Power coefficient["2"] ... 0.604909

Power coefficient["3"] ... 0.583599

Power coefficient["4"] ... 0.591194

Power coefficient["5"] ... 0.562214

Power coefficient["6"] ... 0.595231

Power coefficient["7"] ... 0.589451

Power coefficient["8"] ... 0.579279

Power coefficient["9"] ... 0.567654

Power coefficient["10"] ... 0.573341

Power coefficient["11"] ... 0.587585

Power coefficient["12"] ... 0.605848

Power coefficient["13"] ... 0.571603

Power coefficient["14"] ... 0.586965

Power coefficient["15"] ... 0.585835

Power coefficient["16"] ... 0.577256

Power coefficient["17"] ... 0.574617

smoothSolver:  Solving for Ux, Initial residual = 0.00957376, Final residual = 0.000324415, No Iterations 3
smoothSolver:  Solving for Uy, Initial residual = 0.0114581, Final residual = 0.0010933, No Iterations 2
GAMG:  Solving for p, Initial residual = 0.00764443, Final residual = 0.000712996, No Iterations 4
time step continuity errors : sum local = 1.71752e-06, global = 5.74034e-07, cumulative = -3.1841e-06
smoothSolver:  Solving for epsilon, Initial residual = 0.0439849, Final residual = 0.00313421, No Iterations 2
smoothSolver:  Solving for k, Initial residual = 0.0446912, Final residual = 0.00410524, No Iterations 2
ExecutionTime = 172.14 s  ClockTime = 172 s

Time = 47

Power coefficient["0"] ... 0.61232

Power coefficient["1"] ... 0.596802

Power coefficient["2"] ... 0.60328

Power coefficient["3"] ... 0.582154

Power coefficient["4"] ... 0.589594

Power coefficient["5"] ... 0.560496

Power coefficient["6"] ... 0.593769

Power coefficient["7"] ... 0.587827

Power coefficient["8"] ... 0.577398

Power coefficient["9"] ... 0.565558

Power coefficient["10"] ... 0.571599

Power coefficient["11"] ... 0.585817

Power coefficient["12"] ... 0.604205

Power coefficient["13"] ... 0.569901

Power coefficient["14"] ... 0.585639

Power coefficient["15"] ... 0.584218

Power coefficient["16"] ... 0.575107

Power coefficient["17"] ... 0.572117

smoothSolver:  Solving for Ux, Initial residual = 0.00936921, Final residual = 0.000318775, No Iterations 3
smoothSolver:  Solving for Uy, Initial residual = 0.0112232, Final residual = 0.00107281, No Iterations 2
GAMG:  Solving for p, Initial residual = 0.00760254, Final residual = 0.000755352, No Iterations 6
time step continuity errors : sum local = 1.80715e-06, global = 6.287e-07, cumulative = -2.5554e-06
smoothSolver:  Solving for epsilon, Initial residual = 0.0420004, Final residual = 0.00300344, No Iterations 2
smoothSolver:  Solving for k, Initial residual = 0.0428048, Final residual = 0.00394292, No Iterations 2
ExecutionTime = 175.88 s  ClockTime = 176 s

Time = 48

Power coefficient["0"] ... 0.611536

Power coefficient["1"] ... 0.596036

Power coefficient["2"] ... 0.601635

Power coefficient["3"] ... 0.580725

Power coefficient["4"] ... 0.587771

Power coefficient["5"] ... 0.558802

Power coefficient["6"] ... 0.592358

Power coefficient["7"] ... 0.586096

Power coefficient["8"] ... 0.575521

Power coefficient["9"] ... 0.563335

Power coefficient["10"] ... 0.569905

Power coefficient["11"] ... 0.58357

Power coefficient["12"] ... 0.60256

Power coefficient["13"] ... 0.568226

Power coefficient["14"] ... 0.584333

Power coefficient["15"] ... 0.582602

Power coefficient["16"] ... 0.573018

Power coefficient["17"] ... 0.569684

smoothSolver:  Solving for Ux, Initial residual = 0.0091685, Final residual = 0.000313104, No Iterations 3
smoothSolver:  Solving for Uy, Initial residual = 0.0109962, Final residual = 0.00105308, No Iterations 2
GAMG:  Solving for p, Initial residual = 0.00728709, Final residual = 0.000688886, No Iterations 10
time step continuity errors : sum local = 1.63795e-06, global = 6.63584e-07, cumulative = -1.89182e-06
smoothSolver:  Solving for epsilon, Initial residual = 0.0401416, Final residual = 0.00288073, No Iterations 2
smoothSolver:  Solving for k, Initial residual = 0.0410323, Final residual = 0.00379016, No Iterations 2
ExecutionTime = 180.93 s  ClockTime = 181 s

Time = 49

Power coefficient["0"] ... 0.610806

Power coefficient["1"] ... 0.595339

Power coefficient["2"] ... 0.600098

Power coefficient["3"] ... 0.579341

Power coefficient["4"] ... 0.586179

Power coefficient["5"] ... 0.557178

Power coefficient["6"] ... 0.591027

Power coefficient["7"] ... 0.584555

Power coefficient["8"] ... 0.57381

Power coefficient["9"] ... 0.561426

Power coefficient["10"] ... 0.568292

Power coefficient["11"] ... 0.581709

Power coefficient["12"] ... 0.600955

Power coefficient["13"] ... 0.566605

Power coefficient["14"] ... 0.583072

Power coefficient["15"] ... 0.581039

Power coefficient["16"] ... 0.570992

Power coefficient["17"] ... 0.567316

smoothSolver:  Solving for Ux, Initial residual = 0.00897191, Final residual = 0.000307466, No Iterations 3
smoothSolver:  Solving for Uy, Initial residual = 0.0107956, Final residual = 0.00103562, No Iterations 2
GAMG:  Solving for p, Initial residual = 0.00677624, Final residual = 0.000650602, No Iterations 7
time step continuity errors : sum local = 1.54399e-06, global = -2.13741e-07, cumulative = -2.10556e-06
smoothSolver:  Solving for epsilon, Initial residual = 0.0383948, Final residual = 0.00276526, No Iterations 2
smoothSolver:  Solving for k, Initial residual = 0.0393618, Final residual = 0.00364602, No Iterations 2
ExecutionTime = 184.84 s  ClockTime = 185 s

Time = 50

Power coefficient["0"] ... 0.610164

Power coefficient["1"] ... 0.594738

Power coefficient["2"] ... 0.59862

Power coefficient["3"] ... 0.578027

Power coefficient["4"] ... 0.5846

Power coefficient["5"] ... 0.555632

Power coefficient["6"] ... 0.589796

Power coefficient["7"] ... 0.583123

Power coefficient["8"] ... 0.572152

Power coefficient["9"] ... 0.559581

Power coefficient["10"] ... 0.566758

Power coefficient["11"] ... 0.57988

Power coefficient["12"] ... 0.599413

Power coefficient["13"] ... 0.56505

Power coefficient["14"] ... 0.58187

Power coefficient["15"] ... 0.579555

Power coefficient["16"] ... 0.569059

Power coefficient["17"] ... 0.565068

smoothSolver:  Solving for Ux, Initial residual = 0.00878394, Final residual = 0.000302083, No Iterations 3
smoothSolver:  Solving for Uy, Initial residual = 0.0106311, Final residual = 0.00102118, No Iterations 2
GAMG:  Solving for p, Initial residual = 0.00636714, Final residual = 0.000614001, No Iterations 5
time step continuity errors : sum local = 1.45841e-06, global = -1.5793e-07, cumulative = -2.26349e-06
smoothSolver:  Solving for epsilon, Initial residual = 0.0367568, Final residual = 0.00265677, No Iterations 2
smoothSolver:  Solving for k, Initial residual = 0.0377907, Final residual = 0.00351024, No Iterations 2
ExecutionTime = 188.45 s  ClockTime = 188 s

Time = 51

Power coefficient["0"] ... 0.609625

Power coefficient["1"] ... 0.594258

Power coefficient["2"] ... 0.597194

Power coefficient["3"] ... 0.576782

Power coefficient["4"] ... 0.583062

Power coefficient["5"] ... 0.554146

Power coefficient["6"] ... 0.58863

Power coefficient["7"] ... 0.581752

Power coefficient["8"] ... 0.570575

Power coefficient["9"] ... 0.55782

Power coefficient["10"] ... 0.565275

Power coefficient["11"] ... 0.578107

Power coefficient["12"] ... 0.59793

Power coefficient["13"] ... 0.563746

Power coefficient["14"] ... 0.580807

Power coefficient["15"] ... 0.578141

Power coefficient["16"] ... 0.567209

Power coefficient["17"] ... 0.562927

smoothSolver:  Solving for Ux, Initial residual = 0.00858114, Final residual = 0.000296395, No Iterations 3
smoothSolver:  Solving for Uy, Initial residual = 0.0104504, Final residual = 0.0010054, No Iterations 2
GAMG:  Solving for p, Initial residual = 0.00623811, Final residual = 0.000573344, No Iterations 5
time step continuity errors : sum local = 1.36872e-06, global = -1.20568e-07, cumulative = -2.38406e-06
smoothSolver:  Solving for epsilon, Initial residual = 0.035215, Final residual = 0.00255452, No Iterations 2
smoothSolver:  Solving for k, Initial residual = 0.0363079, Final residual = 0.00338196, No Iterations 2
ExecutionTime = 192.02 s  ClockTime = 192 s

Time = 52

Power coefficient["0"] ... 0.609123

Power coefficient["1"] ... 0.59383

Power coefficient["2"] ... 0.595807

Power coefficient["3"] ... 0.575574

Power coefficient["4"] ... 0.58155

Power coefficient["5"] ... 0.55244

Power coefficient["6"] ... 0.587499

[...]

smoothSolver:  Solving for Ux, Initial residual = 6.36773e-05, Final residual = 3.1059e-06, No Iterations 4
smoothSolver:  Solving for Uy, Initial residual = 0.000103727, Final residual = 9.7852e-06, No Iterations 3
GAMG:  Solving for p, Initial residual = 1.39913e-05, Final residual = 1.08731e-06, No Iterations 5
time step continuity errors : sum local = 1.89897e-09, global = -5.11638e-10, cumulative = -2.37243e-06
smoothSolver:  Solving for epsilon, Initial residual = 5.76133e-05, Final residual = 5.42118e-06, No Iterations 3
smoothSolver:  Solving for k, Initial residual = 9.4864e-05, Final residual = 4.98347e-06, No Iterations 4
ExecutionTime = 5892.9 s  ClockTime = 5902 s

Time = 1551

Power coefficient["0"] ... 0.598149

Power coefficient["1"] ... 0.583679

Power coefficient["2"] ... 0.547424

Power coefficient["3"] ... 0.551197

Power coefficient["4"] ... 0.561896

Power coefficient["5"] ... 0.524254

Power coefficient["6"] ... 0.560299

Power coefficient["7"] ... 0.53522

Power coefficient["8"] ... 0.372727

Power coefficient["9"] ... 0.361622

Power coefficient["10"] ... 0.528125

Power coefficient["11"] ... 0.548084

Power coefficient["12"] ... 0.362195

Power coefficient["13"] ... 0.332573

Power coefficient["14"] ... 0.328089

Power coefficient["15"] ... 0.34953

Power coefficient["16"] ... 0.254534

Power coefficient["17"] ... 0.255606

smoothSolver:  Solving for Ux, Initial residual = 6.34532e-05, Final residual = 3.09535e-06, No Iterations 4
smoothSolver:  Solving for Uy, Initial residual = 0.000103426, Final residual = 9.75576e-06, No Iterations 3
GAMG:  Solving for p, Initial residual = 1.4188e-05, Final residual = 1.17564e-06, No Iterations 5
time step continuity errors : sum local = 2.05327e-09, global = -6.35715e-10, cumulative = -2.37307e-06
smoothSolver:  Solving for epsilon, Initial residual = 5.74392e-05, Final residual = 5.40514e-06, No Iterations 3
smoothSolver:  Solving for k, Initial residual = 9.46243e-05, Final residual = 4.97249e-06, No Iterations 4
ExecutionTime = 5896.63 s  ClockTime = 5906 s

Time = 1552

Power coefficient["0"] ... 0.598149

Power coefficient["1"] ... 0.583679

Power coefficient["2"] ... 0.547423

Power coefficient["3"] ... 0.551196

Power coefficient["4"] ... 0.561896

Power coefficient["5"] ... 0.524253

Power coefficient["6"] ... 0.560298

Power coefficient["7"] ... 0.535219

Power coefficient["8"] ... 0.372724

Power coefficient["9"] ... 0.361619

Power coefficient["10"] ... 0.528124

Power coefficient["11"] ... 0.548084

Power coefficient["12"] ... 0.362191

Power coefficient["13"] ... 0.332571

Power coefficient["14"] ... 0.328087

Power coefficient["15"] ... 0.349526

Power coefficient["16"] ... 0.254532

Power coefficient["17"] ... 0.255603

smoothSolver:  Solving for Ux, Initial residual = 6.32329e-05, Final residual = 3.0849e-06, No Iterations 4
smoothSolver:  Solving for Uy, Initial residual = 0.000103126, Final residual = 9.72682e-06, No Iterations 3
GAMG:  Solving for p, Initial residual = 1.43016e-05, Final residual = 1.17361e-06, No Iterations 5
time step continuity errors : sum local = 2.04976e-09, global = -7.97984e-10, cumulative = -2.37386e-06
smoothSolver:  Solving for epsilon, Initial residual = 5.72655e-05, Final residual = 5.38914e-06, No Iterations 3
smoothSolver:  Solving for k, Initial residual = 9.43851e-05, Final residual = 4.96153e-06, No Iterations 4
ExecutionTime = 5900.37 s  ClockTime = 5909 s

Time = 1553

Power coefficient["0"] ... 0.598149

Power coefficient["1"] ... 0.583678

Power coefficient["2"] ... 0.547422

Power coefficient["3"] ... 0.551195

Power coefficient["4"] ... 0.561896

Power coefficient["5"] ... 0.524252

Power coefficient["6"] ... 0.560297

Power coefficient["7"] ... 0.535218

Power coefficient["8"] ... 0.372721

Power coefficient["9"] ... 0.361616

Power coefficient["10"] ... 0.528122

Power coefficient["11"] ... 0.548083

Power coefficient["12"] ... 0.362188

Power coefficient["13"] ... 0.332569

Power coefficient["14"] ... 0.328084

Power coefficient["15"] ... 0.349522

Power coefficient["16"] ... 0.254529

Power coefficient["17"] ... 0.2556

smoothSolver:  Solving for Ux, Initial residual = 6.30168e-05, Final residual = 3.07454e-06, No Iterations 4
smoothSolver:  Solving for Uy, Initial residual = 0.000102842, Final residual = 9.69936e-06, No Iterations 3
GAMG:  Solving for p, Initial residual = 1.4176e-05, Final residual = 1.11616e-06, No Iterations 5
time step continuity errors : sum local = 1.94946e-09, global = -8.64802e-10, cumulative = -2.37473e-06
smoothSolver:  Solving for epsilon, Initial residual = 5.70923e-05, Final residual = 5.37317e-06, No Iterations 3
smoothSolver:  Solving for k, Initial residual = 9.41466e-05, Final residual = 4.95059e-06, No Iterations 4
ExecutionTime = 5904.09 s  ClockTime = 5913 s

Time = 1554

Power coefficient["0"] ... 0.598149

Power coefficient["1"] ... 0.583678

Power coefficient["2"] ... 0.547422

Power coefficient["3"] ... 0.551194

Power coefficient["4"] ... 0.561895

Power coefficient["5"] ... 0.52425

Power coefficient["6"] ... 0.560296

Power coefficient["7"] ... 0.535218

Power coefficient["8"] ... 0.372718

Power coefficient["9"] ... 0.361613

Power coefficient["10"] ... 0.52812

Power coefficient["11"] ... 0.548082

Power coefficient["12"] ... 0.362184

Power coefficient["13"] ... 0.332567

Power coefficient["14"] ... 0.328082

Power coefficient["15"] ... 0.349519

Power coefficient["16"] ... 0.254526

Power coefficient["17"] ... 0.255598

smoothSolver:  Solving for Ux, Initial residual = 6.28038e-05, Final residual = 3.06424e-06, No Iterations 4
smoothSolver:  Solving for Uy, Initial residual = 0.000102581, Final residual = 9.67356e-06, No Iterations 3
GAMG:  Solving for p, Initial residual = 1.41702e-05, Final residual = 1.11991e-06, No Iterations 5
time step continuity errors : sum local = 1.95607e-09, global = -8.65728e-10, cumulative = -2.37559e-06
smoothSolver:  Solving for epsilon, Initial residual = 5.69196e-05, Final residual = 5.35725e-06, No Iterations 3
smoothSolver:  Solving for k, Initial residual = 9.39086e-05, Final residual = 4.93967e-06, No Iterations 4
ExecutionTime = 5907.88 s  ClockTime = 5917 s

Time = 1555

Power coefficient["0"] ... 0.598148

Power coefficient["1"] ... 0.583678

Power coefficient["2"] ... 0.547421

Power coefficient["3"] ... 0.551193

Power coefficient["4"] ... 0.561895

Power coefficient["5"] ... 0.524249

Power coefficient["6"] ... 0.560295

Power coefficient["7"] ... 0.535217

Power coefficient["8"] ... 0.372715

Power coefficient["9"] ... 0.36161

Power coefficient["10"] ... 0.528119

Power coefficient["11"] ... 0.548082

Power coefficient["12"] ... 0.362181

Power coefficient["13"] ... 0.332565

Power coefficient["14"] ... 0.32808

Power coefficient["15"] ... 0.349515

Power coefficient["16"] ... 0.254524

Power coefficient["17"] ... 0.255595

smoothSolver:  Solving for Ux, Initial residual = 6.25926e-05, Final residual = 3.05398e-06, No Iterations 4
smoothSolver:  Solving for Uy, Initial residual = 0.000102339, Final residual = 9.64918e-06, No Iterations 3
GAMG:  Solving for p, Initial residual = 1.41902e-05, Final residual = 1.15224e-06, No Iterations 5
time step continuity errors : sum local = 2.01261e-09, global = -7.80351e-10, cumulative = -2.37637e-06
smoothSolver:  Solving for epsilon, Initial residual = 5.67475e-05, Final residual = 5.34137e-06, No Iterations 3
smoothSolver:  Solving for k, Initial residual = 9.36713e-05, Final residual = 4.92877e-06, No Iterations 4
ExecutionTime = 5911.59 s  ClockTime = 5920 s

Time = 1556

Power coefficient["0"] ... 0.598148

Power coefficient["1"] ... 0.583678

Power coefficient["2"] ... 0.54742

Power coefficient["3"] ... 0.551192

Power coefficient["4"] ... 0.561894

Power coefficient["5"] ... 0.524248

Power coefficient["6"] ... 0.560294

Power coefficient["7"] ... 0.535216

Power coefficient["8"] ... 0.372712

Power coefficient["9"] ... 0.361607

Power coefficient["10"] ... 0.528117

Power coefficient["11"] ... 0.548081

Power coefficient["12"] ... 0.362177

Power coefficient["13"] ... 0.332564

Power coefficient["14"] ... 0.328078

Power coefficient["15"] ... 0.349512

Power coefficient["16"] ... 0.254521

Power coefficient["17"] ... 0.255592

smoothSolver:  Solving for Ux, Initial residual = 6.23806e-05, Final residual = 3.04372e-06, No Iterations 4
smoothSolver:  Solving for Uy, Initial residual = 0.000102106, Final residual = 9.62516e-06, No Iterations 3
GAMG:  Solving for p, Initial residual = 1.40546e-05, Final residual = 1.10678e-06, No Iterations 5
time step continuity errors : sum local = 1.93327e-09, global = -5.93432e-10, cumulative = -2.37697e-06
smoothSolver:  Solving for epsilon, Initial residual = 5.65759e-05, Final residual = 5.32553e-06, No Iterations 3
smoothSolver:  Solving for k, Initial residual = 9.34346e-05, Final residual = 4.91789e-06, No Iterations 4
ExecutionTime = 5915.34 s  ClockTime = 5924 s

Time = 1557

Power coefficient["0"] ... 0.598148

Power coefficient["1"] ... 0.583678

Power coefficient["2"] ... 0.547419

Power coefficient["3"] ... 0.551191

Power coefficient["4"] ... 0.561894

Power coefficient["5"] ... 0.524247

Power coefficient["6"] ... 0.560293

Power coefficient["7"] ... 0.535215

Power coefficient["8"] ... 0.372709

Power coefficient["9"] ... 0.361604

Power coefficient["10"] ... 0.528115

Power coefficient["11"] ... 0.54808

Power coefficient["12"] ... 0.362173

Power coefficient["13"] ... 0.332562

Power coefficient["14"] ... 0.328075

Power coefficient["15"] ... 0.349508

Power coefficient["16"] ... 0.254519

Power coefficient["17"] ... 0.255589

smoothSolver:  Solving for Ux, Initial residual = 6.21656e-05, Final residual = 3.03344e-06, No Iterations 4
smoothSolver:  Solving for Uy, Initial residual = 0.00010186, Final residual = 9.59983e-06, No Iterations 3
GAMG:  Solving for p, Initial residual = 1.38989e-05, Final residual = 1.05467e-06, No Iterations 5
time step continuity errors : sum local = 1.84233e-09, global = -4.74286e-10, cumulative = -2.37744e-06
smoothSolver:  Solving for epsilon, Initial residual = 5.64048e-05, Final residual = 5.30973e-06, No Iterations 3
smoothSolver:  Solving for k, Initial residual = 9.31985e-05, Final residual = 4.90703e-06, No Iterations 4
ExecutionTime = 5919.77 s  ClockTime = 5929 s

Time = 1558

Power coefficient["0"] ... 0.598148

Power coefficient["1"] ... 0.583678

Power coefficient["2"] ... 0.547418

Power coefficient["3"] ... 0.55119

Power coefficient["4"] ... 0.561894

Power coefficient["5"] ... 0.524245

Power coefficient["6"] ... 0.560292

Power coefficient["7"] ... 0.535214

Power coefficient["8"] ... 0.372706

Power coefficient["9"] ... 0.361601

Power coefficient["10"] ... 0.528114

Power coefficient["11"] ... 0.54808

Power coefficient["12"] ... 0.36217

Power coefficient["13"] ... 0.33256

Power coefficient["14"] ... 0.328073

Power coefficient["15"] ... 0.349505

Power coefficient["16"] ... 0.254516

Power coefficient["17"] ... 0.255586

smoothSolver:  Solving for Ux, Initial residual = 6.19489e-05, Final residual = 3.02317e-06, No Iterations 4
smoothSolver:  Solving for Uy, Initial residual = 0.00010159, Final residual = 9.57255e-06, No Iterations 3
GAMG:  Solving for p, Initial residual = 1.3802e-05, Final residual = 1.02827e-06, No Iterations 5
time step continuity errors : sum local = 1.79625e-09, global = -4.61935e-10, cumulative = -2.3779e-06
smoothSolver:  Solving for epsilon, Initial residual = 5.62343e-05, Final residual = 5.29397e-06, No Iterations 3
smoothSolver:  Solving for k, Initial residual = 9.2963e-05, Final residual = 4.89619e-06, No Iterations 4
ExecutionTime = 5923.96 s  ClockTime = 5933 s

Time = 1559

Power coefficient["0"] ... 0.598148

Power coefficient["1"] ... 0.583678

Power coefficient["2"] ... 0.547417

Power coefficient["3"] ... 0.551189

Power coefficient["4"] ... 0.561893

Power coefficient["5"] ... 0.524244

Power coefficient["6"] ... 0.560291

Power coefficient["7"] ... 0.535214

Power coefficient["8"] ... 0.372703

Power coefficient["9"] ... 0.361598

Power coefficient["10"] ... 0.528112

Power coefficient["11"] ... 0.548079

Power coefficient["12"] ... 0.362166

Power coefficient["13"] ... 0.332558

Power coefficient["14"] ... 0.328071

Power coefficient["15"] ... 0.349501

Power coefficient["16"] ... 0.254513

Power coefficient["17"] ... 0.255583

smoothSolver:  Solving for Ux, Initial residual = 6.17331e-05, Final residual = 3.01296e-06, No Iterations 4
smoothSolver:  Solving for Uy, Initial residual = 0.000101296, Final residual = 9.5437e-06, No Iterations 3
GAMG:  Solving for p, Initial residual = 1.38229e-05, Final residual = 1.00381e-06, No Iterations 5
time step continuity errors : sum local = 1.75357e-09, global = -5.20838e-10, cumulative = -2.37842e-06
smoothSolver:  Solving for epsilon, Initial residual = 5.60642e-05, Final residual = 5.27825e-06, No Iterations 3
smoothSolver:  Solving for k, Initial residual = 9.27282e-05, Final residual = 4.88536e-06, No Iterations 4
ExecutionTime = 5927.76 s  ClockTime = 5937 s

Time = 1560

Power coefficient["0"] ... 0.598148

Power coefficient["1"] ... 0.583678

Power coefficient["2"] ... 0.547416

Power coefficient["3"] ... 0.551188

Power coefficient["4"] ... 0.561893

Power coefficient["5"] ... 0.524243

Power coefficient["6"] ... 0.56029

Power coefficient["7"] ... 0.535213

Power coefficient["8"] ... 0.3727

Power coefficient["9"] ... 0.361595

Power coefficient["10"] ... 0.52811

Power coefficient["11"] ... 0.548078

Power coefficient["12"] ... 0.362163

Power coefficient["13"] ... 0.332556

Power coefficient["14"] ... 0.328068

Power coefficient["15"] ... 0.349497

Power coefficient["16"] ... 0.25451

Power coefficient["17"] ... 0.25558

smoothSolver:  Solving for Ux, Initial residual = 6.152e-05, Final residual = 3.00283e-06, No Iterations 4
smoothSolver:  Solving for Uy, Initial residual = 0.000100995, Final residual = 9.51454e-06, No Iterations 3
GAMG:  Solving for p, Initial residual = 1.3893e-05, Final residual = 9.89207e-07, No Iterations 5
time step continuity errors : sum local = 1.72808e-09, global = -6.12232e-10, cumulative = -2.37904e-06
smoothSolver:  Solving for epsilon, Initial residual = 5.58946e-05, Final residual = 5.26256e-06, No Iterations 3
smoothSolver:  Solving for k, Initial residual = 9.24939e-05, Final residual = 4.87456e-06, No Iterations 4
ExecutionTime = 5931.41 s  ClockTime = 5940 s

Time = 1561

Power coefficient["0"] ... 0.598148

Power coefficient["1"] ... 0.583678

Power coefficient["2"] ... 0.547415

Power coefficient["3"] ... 0.551187

Power coefficient["4"] ... 0.561893

Power coefficient["5"] ... 0.524241

Power coefficient["6"] ... 0.560289

Power coefficient["7"] ... 0.535212

Power coefficient["8"] ... 0.372697

Power coefficient["9"] ... 0.361593

Power coefficient["10"] ... 0.528109

Power coefficient["11"] ... 0.548078

Power coefficient["12"] ... 0.362159

Power coefficient["13"] ... 0.332554

Power coefficient["14"] ... 0.328066

Power coefficient["15"] ... 0.349494

Power coefficient["16"] ... 0.254508

Power coefficient["17"] ... 0.255577

smoothSolver:  Solving for Ux, Initial residual = 6.13103e-05, Final residual = 2.99277e-06, No Iterations 4
smoothSolver:  Solving for Uy, Initial residual = 0.000100707, Final residual = 9.4865e-06, No Iterations 3
GAMG:  Solving for p, Initial residual = 1.38609e-05, Final residual = 1.00364e-06, No Iterations 5
time step continuity errors : sum local = 1.75332e-09, global = -6.81576e-10, cumulative = -2.37972e-06
smoothSolver:  Solving for epsilon, Initial residual = 5.57254e-05, Final residual = 5.24692e-06, No Iterations 3
smoothSolver:  Solving for k, Initial residual = 9.22602e-05, Final residual = 4.86378e-06, No Iterations 4
ExecutionTime = 5935.03 s  ClockTime = 5944 s

Time = 1562

Power coefficient["0"] ... 0.598148

Power coefficient["1"] ... 0.583677

Power coefficient["2"] ... 0.547414

Power coefficient["3"] ... 0.551186

Power coefficient["4"] ... 0.561892

Power coefficient["5"] ... 0.52424

Power coefficient["6"] ... 0.560288

Power coefficient["7"] ... 0.535211

Power coefficient["8"] ... 0.372694

Power coefficient["9"] ... 0.36159

Power coefficient["10"] ... 0.528107

Power coefficient["11"] ... 0.548077

Power coefficient["12"] ... 0.362155

Power coefficient["13"] ... 0.332552

Power coefficient["14"] ... 0.328064

Power coefficient["15"] ... 0.34949

Power coefficient["16"] ... 0.254505

Power coefficient["17"] ... 0.255574

smoothSolver:  Solving for Ux, Initial residual = 6.11037e-05, Final residual = 2.98279e-06, No Iterations 4
smoothSolver:  Solving for Uy, Initial residual = 0.000100443, Final residual = 9.46028e-06, No Iterations 3
GAMG:  Solving for p, Initial residual = 1.38873e-05, Final residual = 1.03402e-06, No Iterations 5
time step continuity errors : sum local = 1.80644e-09, global = -7.00093e-10, cumulative = -2.38042e-06
smoothSolver:  Solving for epsilon, Initial residual = 5.55569e-05, Final residual = 5.23131e-06, No Iterations 3
smoothSolver:  Solving for k, Initial residual = 9.20271e-05, Final residual = 4.85302e-06, No Iterations 4
ExecutionTime = 5938.71 s  ClockTime = 5948 s

Time = 1563

Power coefficient["0"] ... 0.598147

Power coefficient["1"] ... 0.583677

Power coefficient["2"] ... 0.547413

Power coefficient["3"] ... 0.551185

Power coefficient["4"] ... 0.561892

Power coefficient["5"] ... 0.524239

Power coefficient["6"] ... 0.560287

Power coefficient["7"] ... 0.535211

Power coefficient["8"] ... 0.372691

Power coefficient["9"] ... 0.361587

Power coefficient["10"] ... 0.528106

Power coefficient["11"] ... 0.548076

Power coefficient["12"] ... 0.362152

Power coefficient["13"] ... 0.332551

Power coefficient["14"] ... 0.328062

Power coefficient["15"] ... 0.349487

Power coefficient["16"] ... 0.254502

Power coefficient["17"] ... 0.255571

smoothSolver:  Solving for Ux, Initial residual = 6.08991e-05, Final residual = 2.97285e-06, No Iterations 4
smoothSolver:  Solving for Uy, Initial residual = 0.000100199, Final residual = 9.43558e-06, No Iterations 3
GAMG:  Solving for p, Initial residual = 1.3853e-05, Final residual = 1.02034e-06, No Iterations 5
time step continuity errors : sum local = 1.7826e-09, global = -6.29069e-10, cumulative = -2.38105e-06
smoothSolver:  Solving for epsilon, Initial residual = 5.53889e-05, Final residual = 5.21575e-06, No Iterations 3
smoothSolver:  Solving for k, Initial residual = 9.17947e-05, Final residual = 4.84228e-06, No Iterations 4
ExecutionTime = 5942.33 s  ClockTime = 5951 s

Time = 1564

Power coefficient["0"] ... 0.598147

Power coefficient["1"] ... 0.583677

Power coefficient["2"] ... 0.547412

Power coefficient["3"] ... 0.551184

Power coefficient["4"] ... 0.561892

Power coefficient["5"] ... 0.524238

Power coefficient["6"] ... 0.560286

Power coefficient["7"] ... 0.53521

Power coefficient["8"] ... 0.372688

Power coefficient["9"] ... 0.361584

Power coefficient["10"] ... 0.528104

Power coefficient["11"] ... 0.548076

Power coefficient["12"] ... 0.362148

Power coefficient["13"] ... 0.332549

Power coefficient["14"] ... 0.328059

Power coefficient["15"] ... 0.349483

Power coefficient["16"] ... 0.254499

Power coefficient["17"] ... 0.255568

smoothSolver:  Solving for Ux, Initial residual = 6.06942e-05, Final residual = 2.96292e-06, No Iterations 4
smoothSolver:  Solving for Uy, Initial residual = 9.9963e-05, Final residual = 9.41128e-06, No Iterations 3
GAMG:  Solving for p, Initial residual = 1.37298e-05, Final residual = 9.93424e-07, No Iterations 5
time step continuity errors : sum local = 1.73565e-09, global = -5.09881e-10, cumulative = -2.38156e-06
smoothSolver:  Solving for epsilon, Initial residual = 5.52215e-05, Final residual = 5.20024e-06, No Iterations 3
smoothSolver:  Solving for k, Initial residual = 9.15628e-05, Final residual = 4.83156e-06, No Iterations 4
ExecutionTime = 5945.98 s  ClockTime = 5955 s


SIMPLE solution converged in 1564 iterations

End

