/*---------------------------------------------------------------------------*\
  =========                 |
  \\      /  F ield         | OpenFOAM: The Open Source CFD Toolbox
   \\    /   O peration     | Website:  https://openfoam.org
    \\  /    A nd           | Version:  7
     \\/     M anipulation  |
\*---------------------------------------------------------------------------*/
Build  : 7-1ff648926f77
Exec   : windspireSimpleFoam
Date   : Jun 15 2021
Time   : 18:29:56
Host   : "edgar-23-p110la"
PID    : 13452
I/O    : uncollated
Case   : /home/edgar/OpenFOAM/edgar-7/run/windspire
nProcs : 1
sigFpe : Enabling floating point exception trapping (FOAM_SIGFPE).
fileModificationChecking : Monitoring run-time modified files using timeStampMaster (fileModificationSkew 10)
allowSystemOperations : Allowing user-supplied system call operations

// * * * * * * * * * * * * * * * * * * * * * * * * * * * * * * * * * * * * * //
Create time

Create mesh for time = 0


SIMPLE: Convergence criteria found
        p: tolerance 0.001
        U: tolerance 0.0001
        "(k|epsilon)": tolerance 0.0001

Reading field p

Reading field U

Using #calcEntry at line 18 in file "/home/edgar/OpenFOAM/edgar-7/run/windspire/0/U"
Using #codeStream with "/home/edgar/OpenFOAM/edgar-7/run/windspire/dynamicCode/platforms/linux64GccDPInt32Opt/lib/libcodeStream_c3cb4bc1edf6893dff7fdb238fe6b3e0edd59a84.so"
Using #calcEntry at line 28 in file "/home/edgar/OpenFOAM/edgar-7/run/windspire/0/U"
Using #codeStream with "/home/edgar/OpenFOAM/edgar-7/run/windspire/dynamicCode/platforms/linux64GccDPInt32Opt/lib/libcodeStream_0bd550fa51417e870984596607f6c07b235b46ea.so"
Using #calcEntry at line 29 in file "/home/edgar/OpenFOAM/edgar-7/run/windspire/0/U"
Using #codeStream with "/home/edgar/OpenFOAM/edgar-7/run/windspire/dynamicCode/platforms/linux64GccDPInt32Opt/lib/libcodeStream_87d0341af30774b03091cebd96925ed25cb9a53c.so"
Using #calcEntry at line 30 in file "/home/edgar/OpenFOAM/edgar-7/run/windspire/0/U"
Using #codeStream with "/home/edgar/OpenFOAM/edgar-7/run/windspire/dynamicCode/platforms/linux64GccDPInt32Opt/lib/libcodeStream_c8014763c2765039136a3bda1afde363607d7933.so"
Using #calcEntry at line 31 in file "/home/edgar/OpenFOAM/edgar-7/run/windspire/0/U"
Using #codeStream with "/home/edgar/OpenFOAM/edgar-7/run/windspire/dynamicCode/platforms/linux64GccDPInt32Opt/lib/libcodeStream_377a726e935d33e5df434c8df283430d4c779ea8.so"
Reading/calculating face flux field phi

Selecting incompressible transport model Newtonian
Selecting turbulence model type RAS
Selecting RAS turbulence model kEpsilon
Using #calcEntry at line 18 in file "/home/edgar/OpenFOAM/edgar-7/run/windspire/0/nut"
Using #calcEntry at line 28 in file "/home/edgar/OpenFOAM/edgar-7/run/windspire/0/nut"
Using #calcEntry at line 29 in file "/home/edgar/OpenFOAM/edgar-7/run/windspire/0/nut"
Using #calcEntry at line 30 in file "/home/edgar/OpenFOAM/edgar-7/run/windspire/0/nut"
Using #calcEntry at line 31 in file "/home/edgar/OpenFOAM/edgar-7/run/windspire/0/nut"
Using #calcEntry at line 18 in file "/home/edgar/OpenFOAM/edgar-7/run/windspire/0/k"
Using #calcEntry at line 28 in file "/home/edgar/OpenFOAM/edgar-7/run/windspire/0/k"
Using #calcEntry at line 29 in file "/home/edgar/OpenFOAM/edgar-7/run/windspire/0/k"
Using #calcEntry at line 30 in file "/home/edgar/OpenFOAM/edgar-7/run/windspire/0/k"
Using #calcEntry at line 31 in file "/home/edgar/OpenFOAM/edgar-7/run/windspire/0/k"
Using #calcEntry at line 18 in file "/home/edgar/OpenFOAM/edgar-7/run/windspire/0/epsilon"
Using #calcEntry at line 28 in file "/home/edgar/OpenFOAM/edgar-7/run/windspire/0/epsilon"
Using #calcEntry at line 29 in file "/home/edgar/OpenFOAM/edgar-7/run/windspire/0/epsilon"
Using #calcEntry at line 30 in file "/home/edgar/OpenFOAM/edgar-7/run/windspire/0/epsilon"
Using #calcEntry at line 31 in file "/home/edgar/OpenFOAM/edgar-7/run/windspire/0/epsilon"
RAS
{
    RASModel        kEpsilon;
    turbulence      on;
    printCoeffs     on;
    Cmu             0.09;
    C1              1.44;
    C2              1.92;
    C3              0;
    sigmak          1;
    sigmaEps        1.3;
}

No MRF models present

Create volume force field.
No finite volume options present

Starting time loop


Center ..........(0 0 0)
Ri ..............0.51
Ro ..............0.69
Spin ............1
NB ..............3
CH ..............0.13
R ...............0.6
RPM .............293
LAMBDA ..........2.3
U0 ..............8

Cylinder cells have been collected.
Arrays were initialized.
windspire0 was created.

Center ..........(13.57 0 0)
Ri ..............0.51
Ro ..............0.69
Spin ............1
NB ..............3
CH ..............0.13
R ...............0.6
RPM .............293
LAMBDA ..........2.3
U0 ..............8

Cylinder cells have been collected.
Arrays were initialized.
windspire1 was created.

Center ..........(27.15 0 0)
Ri ..............0.51
Ro ..............0.69
Spin ............1
NB ..............3
CH ..............0.13
R ...............0.6
RPM .............293
LAMBDA ..........2.3
U0 ..............8

Cylinder cells have been collected.
Arrays were initialized.
windspire2 was created.

Center ..........(40.73 0 0)
Ri ..............0.51
Ro ..............0.69
Spin ............1
NB ..............3
CH ..............0.13
R ...............0.6
RPM .............293
LAMBDA ..........2.3
U0 ..............8

Cylinder cells have been collected.
Arrays were initialized.
windspire3 was created.
Time = 1

Power coefficient["0"] ... 0.392181

Power coefficient["1"] ... 0.392181

Power coefficient["2"] ... 0.392181

Power coefficient["3"] ... 0.392181

smoothSolver:  Solving for Ux, Initial residual = 1, Final residual = 0.0935808, No Iterations 3
smoothSolver:  Solving for Uy, Initial residual = 1, Final residual = 0.0902847, No Iterations 3
GAMG:  Solving for p, Initial residual = 1, Final residual = 0.0567556, No Iterations 3
time step continuity errors : sum local = 0.000454596, global = 8.3987e-07, cumulative = 8.3987e-07
smoothSolver:  Solving for epsilon, Initial residual = 1, Final residual = 0.0798075, No Iterations 3
smoothSolver:  Solving for k, Initial residual = 1, Final residual = 0.0922947, No Iterations 3
ExecutionTime = 5.9 s  ClockTime = 6 s

Time = 2

Power coefficient["0"] ... 0.375746

Power coefficient["1"] ... 0.375639

Power coefficient["2"] ... 0.375635

Power coefficient["3"] ... 0.375188

smoothSolver:  Solving for Ux, Initial residual = 0.312095, Final residual = 0.0287211, No Iterations 3
smoothSolver:  Solving for Uy, Initial residual = 0.391284, Final residual = 0.0356828, No Iterations 3
GAMG:  Solving for p, Initial residual = 0.584847, Final residual = 0.0371228, No Iterations 3
time step continuity errors : sum local = 0.000426221, global = -1.81115e-06, cumulative = -9.71283e-07
smoothSolver:  Solving for epsilon, Initial residual = 0.984074, Final residual = 0.0787489, No Iterations 3
smoothSolver:  Solving for k, Initial residual = 0.980576, Final residual = 0.0907531, No Iterations 3
ExecutionTime = 7.37 s  ClockTime = 8 s

Time = 3

Power coefficient["0"] ... 0.369373

Power coefficient["1"] ... 0.369121

Power coefficient["2"] ... 0.369101

Power coefficient["3"] ... 0.368399

smoothSolver:  Solving for Ux, Initial residual = 0.302717, Final residual = 0.026631, No Iterations 3
smoothSolver:  Solving for Uy, Initial residual = 0.350468, Final residual = 0.0311757, No Iterations 3
GAMG:  Solving for p, Initial residual = 0.31645, Final residual = 0.0295974, No Iterations 2
time step continuity errors : sum local = 0.000314212, global = -2.08358e-06, cumulative = -3.05487e-06
smoothSolver:  Solving for epsilon, Initial residual = 0.954876, Final residual = 0.0765475, No Iterations 3
smoothSolver:  Solving for k, Initial residual = 0.948593, Final residual = 0.0879119, No Iterations 3
ExecutionTime = 8.8 s  ClockTime = 9 s

Time = 4

Power coefficient["0"] ... 0.373243

Power coefficient["1"] ... 0.372263

Power coefficient["2"] ... 0.372254

Power coefficient["3"] ... 0.371874

smoothSolver:  Solving for Ux, Initial residual = 0.221336, Final residual = 0.0197448, No Iterations 3
smoothSolver:  Solving for Uy, Initial residual = 0.2397, Final residual = 0.0215765, No Iterations 3
GAMG:  Solving for p, Initial residual = 0.426056, Final residual = 0.0302197, No Iterations 3
time step continuity errors : sum local = 0.000308709, global = -1.80542e-06, cumulative = -4.86028e-06
smoothSolver:  Solving for epsilon, Initial residual = 0.923632, Final residual = 0.0741123, No Iterations 3
smoothSolver:  Solving for k, Initial residual = 0.915402, Final residual = 0.0849087, No Iterations 3
ExecutionTime = 10.29 s  ClockTime = 11 s

Time = 5

Power coefficient["0"] ... 0.370799

Power coefficient["1"] ... 0.369269

Power coefficient["2"] ... 0.369254

Power coefficient["3"] ... 0.368951

smoothSolver:  Solving for Ux, Initial residual = 0.138142, Final residual = 0.0127635, No Iterations 3
smoothSolver:  Solving for Uy, Initial residual = 0.151236, Final residual = 0.0139906, No Iterations 3
GAMG:  Solving for p, Initial residual = 0.410818, Final residual = 0.0253453, No Iterations 3
time step continuity errors : sum local = 0.000232127, global = -2.03102e-06, cumulative = -6.8913e-06
smoothSolver:  Solving for epsilon, Initial residual = 0.887478, Final residual = 0.0712681, No Iterations 3
smoothSolver:  Solving for k, Initial residual = 0.876742, Final residual = 0.0813909, No Iterations 3
ExecutionTime = 11.83 s  ClockTime = 12 s

Time = 6

Power coefficient["0"] ... 0.363203

Power coefficient["1"] ... 0.36107

Power coefficient["2"] ... 0.361049

Power coefficient["3"] ... 0.36073

smoothSolver:  Solving for Ux, Initial residual = 0.0933302, Final residual = 0.00871495, No Iterations 3
smoothSolver:  Solving for Uy, Initial residual = 0.101021, Final residual = 0.00937884, No Iterations 3
GAMG:  Solving for p, Initial residual = 0.282603, Final residual = 0.0136782, No Iterations 3
time step continuity errors : sum local = 0.000113808, global = -4.77148e-06, cumulative = -1.16628e-05
smoothSolver:  Solving for epsilon, Initial residual = 0.848006, Final residual = 0.0681457, No Iterations 3
smoothSolver:  Solving for k, Initial residual = 0.834966, Final residual = 0.0775748, No Iterations 3
ExecutionTime = 13.33 s  ClockTime = 14 s

Time = 7

Power coefficient["0"] ... 0.353107

Power coefficient["1"] ... 0.350498

Power coefficient["2"] ... 0.350473

Power coefficient["3"] ... 0.349596

smoothSolver:  Solving for Ux, Initial residual = 0.0593747, Final residual = 0.0055706, No Iterations 3
smoothSolver:  Solving for Uy, Initial residual = 0.0611321, Final residual = 0.00566308, No Iterations 3
GAMG:  Solving for p, Initial residual = 0.298276, Final residual = 0.0225053, No Iterations 3
time step continuity errors : sum local = 0.000186718, global = 4.62262e-07, cumulative = -1.12005e-05
smoothSolver:  Solving for epsilon, Initial residual = 0.811817, Final residual = 0.0652962, No Iterations 3
smoothSolver:  Solving for k, Initial residual = 0.796885, Final residual = 0.0741008, No Iterations 3
ExecutionTime = 14.89 s  ClockTime = 15 s

Time = 8

Power coefficient["0"] ... 0.34276

Power coefficient["1"] ... 0.341489

Power coefficient["2"] ... 0.34144

Power coefficient["3"] ... 0.339067

smoothSolver:  Solving for Ux, Initial residual = 0.0481642, Final residual = 0.00451922, No Iterations 3
smoothSolver:  Solving for Uy, Initial residual = 0.0485751, Final residual = 0.00449628, No Iterations 3
GAMG:  Solving for p, Initial residual = 0.253756, Final residual = 0.020384, No Iterations 3
time step continuity errors : sum local = 0.000169802, global = 5.61312e-07, cumulative = -1.06392e-05
smoothSolver:  Solving for epsilon, Initial residual = 0.773272, Final residual = 0.0622396, No Iterations 3
smoothSolver:  Solving for k, Initial residual = 0.756122, Final residual = 0.0703519, No Iterations 3
ExecutionTime = 16.37 s  ClockTime = 17 s

Time = 9

Power coefficient["0"] ... 0.337009

Power coefficient["1"] ... 0.335489

Power coefficient["2"] ... 0.335432

Power coefficient["3"] ... 0.332999

smoothSolver:  Solving for Ux, Initial residual = 0.0473711, Final residual = 0.00441518, No Iterations 3
smoothSolver:  Solving for Uy, Initial residual = 0.0486685, Final residual = 0.00449935, No Iterations 3
GAMG:  Solving for p, Initial residual = 0.184448, Final residual = 0.0106788, No Iterations 3
time step continuity errors : sum local = 8.7037e-05, global = -1.20429e-06, cumulative = -1.18435e-05
smoothSolver:  Solving for epsilon, Initial residual = 0.729163, Final residual = 0.0585203, No Iterations 3
smoothSolver:  Solving for k, Initial residual = 0.70998, Final residual = 0.0658372, No Iterations 3
ExecutionTime = 17.88 s  ClockTime = 18 s

Time = 10

Power coefficient["0"] ... 0.334496

Power coefficient["1"] ... 0.332622

Power coefficient["2"] ... 0.332555

Power coefficient["3"] ... 0.330198

smoothSolver:  Solving for Ux, Initial residual = 0.0508814, Final residual = 0.00474786, No Iterations 3
smoothSolver:  Solving for Uy, Initial residual = 0.0533805, Final residual = 0.00495643, No Iterations 3
GAMG:  Solving for p, Initial residual = 0.19026, Final residual = 0.0133749, No Iterations 3
time step continuity errors : sum local = 0.000109268, global = -1.29635e-06, cumulative = -1.31399e-05
smoothSolver:  Solving for epsilon, Initial residual = 0.680819, Final residual = 0.0547762, No Iterations 3
smoothSolver:  Solving for k, Initial residual = 0.659806, Final residual = 0.061342, No Iterations 3
ExecutionTime = 19.38 s  ClockTime = 20 s

Time = 11

Power coefficient["0"] ... 0.332539

Power coefficient["1"] ... 0.33009

Power coefficient["2"] ... 0.330011

Power coefficient["3"] ... 0.327721

smoothSolver:  Solving for Ux, Initial residual = 0.0492137, Final residual = 0.00461617, No Iterations 3
smoothSolver:  Solving for Uy, Initial residual = 0.0518431, Final residual = 0.00484322, No Iterations 3
GAMG:  Solving for p, Initial residual = 0.169546, Final residual = 0.0142487, No Iterations 3
time step continuity errors : sum local = 0.000115292, global = -2.04111e-06, cumulative = -1.5181e-05
smoothSolver:  Solving for epsilon, Initial residual = 0.636202, Final residual = 0.0512634, No Iterations 3
smoothSolver:  Solving for k, Initial residual = 0.614085, Final residual = 0.0571751, No Iterations 3
ExecutionTime = 20.94 s  ClockTime = 21 s

Time = 12

Power coefficient["0"] ... 0.329821

Power coefficient["1"] ... 0.326818

Power coefficient["2"] ... 0.326728

Power coefficient["3"] ... 0.324669

smoothSolver:  Solving for Ux, Initial residual = 0.044467, Final residual = 0.00418887, No Iterations 3
smoothSolver:  Solving for Uy, Initial residual = 0.0470794, Final residual = 0.00440425, No Iterations 3
GAMG:  Solving for p, Initial residual = 0.135958, Final residual = 0.00953481, No Iterations 3
time step continuity errors : sum local = 7.55175e-05, global = -3.28504e-06, cumulative = -1.8466e-05
smoothSolver:  Solving for epsilon, Initial residual = 0.594678, Final residual = 0.0479705, No Iterations 3
smoothSolver:  Solving for k, Initial residual = 0.571859, Final residual = 0.0532985, No Iterations 3
ExecutionTime = 22.52 s  ClockTime = 23 s

Time = 13

Power coefficient["0"] ... 0.326852

Power coefficient["1"] ... 0.323337

Power coefficient["2"] ... 0.323257

Power coefficient["3"] ... 0.321196

smoothSolver:  Solving for Ux, Initial residual = 0.0384612, Final residual = 0.00363504, No Iterations 3
smoothSolver:  Solving for Uy, Initial residual = 0.0409205, Final residual = 0.00382664, No Iterations 3
GAMG:  Solving for p, Initial residual = 0.130041, Final residual = 0.00886737, No Iterations 3
time step continuity errors : sum local = 6.8549e-05, global = -2.12608e-06, cumulative = -2.05921e-05
smoothSolver:  Solving for epsilon, Initial residual = 0.555975, Final residual = 0.0448871, No Iterations 3
smoothSolver:  Solving for k, Initial residual = 0.53276, Final residual = 0.0496923, No Iterations 3
ExecutionTime = 24.07 s  ClockTime = 25 s

Time = 14

Power coefficient["0"] ... 0.324306

Power coefficient["1"] ... 0.32061

Power coefficient["2"] ... 0.320527

Power coefficient["3"] ... 0.318558

smoothSolver:  Solving for Ux, Initial residual = 0.0329863, Final residual = 0.00312483, No Iterations 3
smoothSolver:  Solving for Uy, Initial residual = 0.0356244, Final residual = 0.00332855, No Iterations 3
GAMG:  Solving for p, Initial residual = 0.121986, Final residual = 0.00815246, No Iterations 3
time step continuity errors : sum local = 6.19405e-05, global = -2.30532e-06, cumulative = -2.28974e-05
smoothSolver:  Solving for epsilon, Initial residual = 0.519737, Final residual = 0.0419899, No Iterations 3
smoothSolver:  Solving for k, Initial residual = 0.496289, Final residual = 0.0463167, No Iterations 3
ExecutionTime = 25.58 s  ClockTime = 26 s

Time = 15

Power coefficient["0"] ... 0.322605

Power coefficient["1"] ... 0.318761

Power coefficient["2"] ... 0.318689

Power coefficient["3"] ... 0.316802

smoothSolver:  Solving for Ux, Initial residual = 0.0290099, Final residual = 0.00274951, No Iterations 3
smoothSolver:  Solving for Uy, Initial residual = 0.0316912, Final residual = 0.00296077, No Iterations 3
GAMG:  Solving for p, Initial residual = 0.102263, Final residual = 0.00682132, No Iterations 3
time step continuity errors : sum local = 5.16113e-05, global = -2.33843e-06, cumulative = -2.52358e-05
smoothSolver:  Solving for epsilon, Initial residual = 0.485774, Final residual = 0.0392639, No Iterations 3
smoothSolver:  Solving for k, Initial residual = 0.462392, Final residual = 0.0431677, No Iterations 3
ExecutionTime = 27.1 s  ClockTime = 28 s

Time = 16

Power coefficient["0"] ... 0.32098

Power coefficient["1"] ... 0.317642

Power coefficient["2"] ... 0.317572

Power coefficient["3"] ... 0.315695

smoothSolver:  Solving for Ux, Initial residual = 0.0274054, Final residual = 0.00259798, No Iterations 3
smoothSolver:  Solving for Uy, Initial residual = 0.0292161, Final residual = 0.00273589, No Iterations 3
GAMG:  Solving for p, Initial residual = 0.0911093, Final residual = 0.00700955, No Iterations 3
time step continuity errors : sum local = 5.28414e-05, global = -2.51196e-07, cumulative = -2.5487e-05
smoothSolver:  Solving for epsilon, Initial residual = 0.454113, Final residual = 0.0367281, No Iterations 3
smoothSolver:  Solving for k, Initial residual = 0.431048, Final residual = 0.0402625, No Iterations 3
ExecutionTime = 28.62 s  ClockTime = 29 s

Time = 17

Power coefficient["0"] ... 0.319692

Power coefficient["1"] ... 0.316793

Power coefficient["2"] ... 0.316723

Power coefficient["3"] ... 0.314717

smoothSolver:  Solving for Ux, Initial residual = 0.0268816, Final residual = 0.00255169, No Iterations 3
smoothSolver:  Solving for Uy, Initial residual = 0.0279945, Final residual = 0.00262793, No Iterations 3
GAMG:  Solving for p, Initial residual = 0.0801979, Final residual = 0.00573247, No Iterations 3
time step continuity errors : sum local = 4.3044e-05, global = -1.49978e-06, cumulative = -2.69868e-05
smoothSolver:  Solving for epsilon, Initial residual = 0.424887, Final residual = 0.0343825, No Iterations 3
smoothSolver:  Solving for k, Initial residual = 0.402303, Final residual = 0.0375932, No Iterations 3
ExecutionTime = 30.21 s  ClockTime = 31 s

Time = 18

Power coefficient["0"] ... 0.318526

Power coefficient["1"] ... 0.315738

Power coefficient["2"] ... 0.315667

Power coefficient["3"] ... 0.313175

smoothSolver:  Solving for Ux, Initial residual = 0.0264889, Final residual = 0.00251817, No Iterations 3
smoothSolver:  Solving for Uy, Initial residual = 0.0272529, Final residual = 0.00256105, No Iterations 3
GAMG:  Solving for p, Initial residual = 0.07105, Final residual = 0.00454301, No Iterations 3
time step continuity errors : sum local = 3.40704e-05, global = -2.67806e-06, cumulative = -2.96649e-05
smoothSolver:  Solving for epsilon, Initial residual = 0.397836, Final residual = 0.0322128, No Iterations 3
smoothSolver:  Solving for k, Initial residual = 0.375842, Final residual = 0.035138, No Iterations 3
ExecutionTime = 31.71 s  ClockTime = 32 s

Time = 19

Power coefficient["0"] ... 0.317347

Power coefficient["1"] ... 0.314324

Power coefficient["2"] ... 0.314242

Power coefficient["3"] ... 0.311875

smoothSolver:  Solving for Ux, Initial residual = 0.0254294, Final residual = 0.00242154, No Iterations 3
smoothSolver:  Solving for Uy, Initial residual = 0.0264602, Final residual = 0.00248652, No Iterations 3
GAMG:  Solving for p, Initial residual = 0.0639247, Final residual = 0.00461481, No Iterations 3
time step continuity errors : sum local = 3.43075e-05, global = -2.07587e-06, cumulative = -3.17407e-05
smoothSolver:  Solving for epsilon, Initial residual = 0.37284, Final residual = 0.0302069, No Iterations 3
smoothSolver:  Solving for k, Initial residual = 0.351493, Final residual = 0.0328781, No Iterations 3
ExecutionTime = 33.23 s  ClockTime = 34 s

Time = 20

Power coefficient["0"] ... 0.316325

Power coefficient["1"] ... 0.313238

Power coefficient["2"] ... 0.313154

Power coefficient["3"] ... 0.310812

smoothSolver:  Solving for Ux, Initial residual = 0.0236711, Final residual = 0.00225768, No Iterations 3
smoothSolver:  Solving for Uy, Initial residual = 0.0252032, Final residual = 0.00236873, No Iterations 3
GAMG:  Solving for p, Initial residual = 0.0585925, Final residual = 0.00355553, No Iterations 3
time step continuity errors : sum local = 2.62294e-05, global = -3.13877e-06, cumulative = -3.48795e-05
smoothSolver:  Solving for epsilon, Initial residual = 0.349712, Final residual = 0.0283505, No Iterations 3
smoothSolver:  Solving for k, Initial residual = 0.3291, Final residual = 0.030799, No Iterations 3
ExecutionTime = 34.82 s  ClockTime = 35 s

Time = 21

Power coefficient["0"] ... 0.31552

Power coefficient["1"] ... 0.312406

Power coefficient["2"] ... 0.312324

Power coefficient["3"] ... 0.309991

smoothSolver:  Solving for Ux, Initial residual = 0.0216846, Final residual = 0.00207116, No Iterations 3
smoothSolver:  Solving for Uy, Initial residual = 0.0236113, Final residual = 0.00222099, No Iterations 3
GAMG:  Solving for p, Initial residual = 0.0521609, Final residual = 0.00308911, No Iterations 3
time step continuity errors : sum local = 2.26765e-05, global = -4.88298e-06, cumulative = -3.97625e-05
smoothSolver:  Solving for epsilon, Initial residual = 0.328326, Final residual = 0.0266301, No Iterations 3
smoothSolver:  Solving for k, Initial residual = 0.308515, Final residual = 0.028884, No Iterations 3
ExecutionTime = 36.42 s  ClockTime = 37 s

Time = 22

Power coefficient["0"] ... 0.314933

Power coefficient["1"] ... 0.311794

Power coefficient["2"] ... 0.311716

Power coefficient["3"] ... 0.3094

smoothSolver:  Solving for Ux, Initial residual = 0.0200702, Final residual = 0.00191942, No Iterations 3
smoothSolver:  Solving for Uy, Initial residual = 0.0218043, Final residual = 0.00205423, No Iterations 3
GAMG:  Solving for p, Initial residual = 0.0452634, Final residual = 0.00300002, No Iterations 3
time step continuity errors : sum local = 2.19439e-05, global = -1.96332e-06, cumulative = -4.17258e-05
smoothSolver:  Solving for epsilon, Initial residual = 0.308573, Final residual = 0.0250427, No Iterations 3
smoothSolver:  Solving for k, Initial residual = 0.2896, Final residual = 0.0271261, No Iterations 3
ExecutionTime = 37.92 s  ClockTime = 38 s

Time = 23

Power coefficient["0"] ... 0.314504

Power coefficient["1"] ... 0.311321

Power coefficient["2"] ... 0.311246

Power coefficient["3"] ... 0.308966

smoothSolver:  Solving for Ux, Initial residual = 0.0191906, Final residual = 0.00183737, No Iterations 3
smoothSolver:  Solving for Uy, Initial residual = 0.0203533, Final residual = 0.00192059, No Iterations 3
GAMG:  Solving for p, Initial residual = 0.0404601, Final residual = 0.00277723, No Iterations 3
time step continuity errors : sum local = 2.02381e-05, global = -1.28451e-06, cumulative = -4.30103e-05
smoothSolver:  Solving for epsilon, Initial residual = 0.290351, Final residual = 0.0235797, No Iterations 3
smoothSolver:  Solving for k, Initial residual = 0.272227, Final residual = 0.0255133, No Iterations 3
ExecutionTime = 39.5 s  ClockTime = 40 s

Time = 24

Power coefficient["0"] ... 0.314124

Power coefficient["1"] ... 0.310928

Power coefficient["2"] ... 0.310853

Power coefficient["3"] ... 0.308614

smoothSolver:  Solving for Ux, Initial residual = 0.0186923, Final residual = 0.00179141, No Iterations 3
smoothSolver:  Solving for Uy, Initial residual = 0.0194167, Final residual = 0.00183393, No Iterations 3
GAMG:  Solving for p, Initial residual = 0.0370695, Final residual = 0.00225392, No Iterations 3
time step continuity errors : sum local = 1.64058e-05, global = -2.64717e-06, cumulative = -4.56575e-05
smoothSolver:  Solving for epsilon, Initial residual = 0.273562, Final residual = 0.0222295, No Iterations 3
smoothSolver:  Solving for k, Initial residual = 0.256286, Final residual = 0.024031, No Iterations 3
ExecutionTime = 41.02 s  ClockTime = 42 s

Time = 25

Power coefficient["0"] ... 0.313696

Power coefficient["1"] ... 0.310529

Power coefficient["2"] ... 0.310442

Power coefficient["3"] ... 0.308214

smoothSolver:  Solving for Ux, Initial residual = 0.0182807, Final residual = 0.00175352, No Iterations 3
smoothSolver:  Solving for Uy, Initial residual = 0.0189409, Final residual = 0.00178952, No Iterations 3
GAMG:  Solving for p, Initial residual = 0.0335503, Final residual = 0.00198223, No Iterations 3
time step continuity errors : sum local = 1.44397e-05, global = -2.48497e-06, cumulative = -4.81425e-05
smoothSolver:  Solving for epsilon, Initial residual = 0.258092, Final residual = 0.0209846, No Iterations 3
smoothSolver:  Solving for k, Initial residual = 0.241648, Final residual = 0.0226693, No Iterations 3
ExecutionTime = 42.6 s  ClockTime = 43 s

Time = 26

Power coefficient["0"] ... 0.313343

Power coefficient["1"] ... 0.310136

Power coefficient["2"] ... 0.310051

Power coefficient["3"] ... 0.307805

smoothSolver:  Solving for Ux, Initial residual = 0.0176564, Final residual = 0.00169521, No Iterations 3
smoothSolver:  Solving for Uy, Initial residual = 0.0185656, Final residual = 0.00175484, No Iterations 3
GAMG:  Solving for p, Initial residual = 0.0306872, Final residual = 0.00178412, No Iterations 3
time step continuity errors : sum local = 1.29935e-05, global = -2.43674e-06, cumulative = -5.05792e-05
smoothSolver:  Solving for epsilon, Initial residual = 0.243773, Final residual = 0.0198326, No Iterations 3
smoothSolver:  Solving for k, Initial residual = 0.228132, Final residual = 0.0214123, No Iterations 3
ExecutionTime = 44.09 s  ClockTime = 45 s

Time = 27

Power coefficient["0"] ... 0.312865

Power coefficient["1"] ... 0.309841

Power coefficient["2"] ... 0.309756

Power coefficient["3"] ... 0.307423

smoothSolver:  Solving for Ux, Initial residual = 0.0168456, Final residual = 0.00161906, No Iterations 3
smoothSolver:  Solving for Uy, Initial residual = 0.0180157, Final residual = 0.00170426, No Iterations 3
GAMG:  Solving for p, Initial residual = 0.0278248, Final residual = 0.00166122, No Iterations 3
time step continuity errors : sum local = 1.2089e-05, global = -3.71885e-06, cumulative = -5.42981e-05
smoothSolver:  Solving for epsilon, Initial residual = 0.230498, Final residual = 0.018764, No Iterations 3
smoothSolver:  Solving for k, Initial residual = 0.215654, Final residual = 0.0202512, No Iterations 3
ExecutionTime = 45.7 s  ClockTime = 46 s

Time = 28

Power coefficient["0"] ... 0.312441

Power coefficient["1"] ... 0.309672

Power coefficient["2"] ... 0.30959

Power coefficient["3"] ... 0.307021

smoothSolver:  Solving for Ux, Initial residual = 0.0159954, Final residual = 0.00153918, No Iterations 3
smoothSolver:  Solving for Uy, Initial residual = 0.0172229, Final residual = 0.00163097, No Iterations 3
GAMG:  Solving for p, Initial residual = 0.0247226, Final residual = 0.00153418, No Iterations 3
time step continuity errors : sum local = 1.11533e-05, global = -3.26046e-06, cumulative = -5.75585e-05
smoothSolver:  Solving for epsilon, Initial residual = 0.218205, Final residual = 0.0177723, No Iterations 3
smoothSolver:  Solving for k, Initial residual = 0.204132, Final residual = 0.0191769, No Iterations 3
ExecutionTime = 47.26 s  ClockTime = 48 s

Time = 29

Power coefficient["0"] ... 0.312056

Power coefficient["1"] ... 0.30953

Power coefficient["2"] ... 0.309452

Power coefficient["3"] ... 0.30666

smoothSolver:  Solving for Ux, Initial residual = 0.0152839, Final residual = 0.00147246, No Iterations 3
smoothSolver:  Solving for Uy, Initial residual = 0.0163182, Final residual = 0.00154676, No Iterations 3
GAMG:  Solving for p, Initial residual = 0.022648, Final residual = 0.00141956, No Iterations 3
time step continuity errors : sum local = 1.03025e-05, global = -1.70346e-06, cumulative = -5.9262e-05
smoothSolver:  Solving for epsilon, Initial residual = 0.206777, Final residual = 0.0168516, No Iterations 3
smoothSolver:  Solving for k, Initial residual = 0.193455, Final residual = 0.0181826, No Iterations 3
ExecutionTime = 48.77 s  ClockTime = 49 s

Time = 30

Power coefficient["0"] ... 0.311679

Power coefficient["1"] ... 0.309386

Power coefficient["2"] ... 0.309311

Power coefficient["3"] ... 0.306301

smoothSolver:  Solving for Ux, Initial residual = 0.0147642, Final residual = 0.00142392, No Iterations 3
smoothSolver:  Solving for Uy, Initial residual = 0.0155636, Final residual = 0.00147644, No Iterations 3
GAMG:  Solving for p, Initial residual = 0.0209877, Final residual = 0.00122696, No Iterations 3
time step continuity errors : sum local = 8.89274e-06, global = -1.52535e-06, cumulative = -6.07873e-05
smoothSolver:  Solving for epsilon, Initial residual = 0.19617, Final residual = 0.0159975, No Iterations 3
smoothSolver:  Solving for k, Initial residual = 0.183574, Final residual = 0.0172629, No Iterations 3
ExecutionTime = 50.41 s  ClockTime = 51 s

Time = 31

Power coefficient["0"] ... 0.311284

Power coefficient["1"] ... 0.309146

Power coefficient["2"] ... 0.309055

Power coefficient["3"] ... 0.305923

smoothSolver:  Solving for Ux, Initial residual = 0.0143511, Final residual = 0.00138534, No Iterations 3
smoothSolver:  Solving for Uy, Initial residual = 0.0150473, Final residual = 0.00142827, No Iterations 3
GAMG:  Solving for p, Initial residual = 0.0194627, Final residual = 0.00111137, No Iterations 3
time step continuity errors : sum local = 8.0624e-06, global = -2.12896e-06, cumulative = -6.29163e-05
smoothSolver:  Solving for epsilon, Initial residual = 0.186318, Final residual = 0.0152035, No Iterations 3
smoothSolver:  Solving for k, Initial residual = 0.174415, Final residual = 0.0164097, No Iterations 3
ExecutionTime = 51.99 s  ClockTime = 52 s

Time = 32

Power coefficient["0"] ... 0.310877

Power coefficient["1"] ... 0.308773

Power coefficient["2"] ... 0.308684

Power coefficient["3"] ... 0.305554

smoothSolver:  Solving for Ux, Initial residual = 0.0139787, Final residual = 0.00135038, No Iterations 3
smoothSolver:  Solving for Uy, Initial residual = 0.0147256, Final residual = 0.00139846, No Iterations 3
GAMG:  Solving for p, Initial residual = 0.0179581, Final residual = 0.000986842, No Iterations 3
time step continuity errors : sum local = 7.17743e-06, global = -2.01656e-06, cumulative = -6.49328e-05
smoothSolver:  Solving for epsilon, Initial residual = 0.177156, Final residual = 0.0144651, No Iterations 3
smoothSolver:  Solving for k, Initial residual = 0.165914, Final residual = 0.0156181, No Iterations 3
ExecutionTime = 53.49 s  ClockTime = 54 s

Time = 33

Power coefficient["0"] ... 0.310481

Power coefficient["1"] ... 0.308416

Power coefficient["2"] ... 0.308327

Power coefficient["3"] ... 0.305209

smoothSolver:  Solving for Ux, Initial residual = 0.0135749, Final residual = 0.00131235, No Iterations 3
smoothSolver:  Solving for Uy, Initial residual = 0.0144322, Final residual = 0.00137144, No Iterations 3
GAMG:  Solving for p, Initial residual = 0.0165081, Final residual = 0.00085276, No Iterations 3
time step continuity errors : sum local = 6.21317e-06, global = -1.85453e-06, cumulative = -6.67874e-05
smoothSolver:  Solving for epsilon, Initial residual = 0.168641, Final residual = 0.0137779, No Iterations 3
smoothSolver:  Solving for k, Initial residual = 0.158024, Final residual = 0.0148823, No Iterations 3
ExecutionTime = 55.02 s  ClockTime = 56 s

Time = 34

Power coefficient["0"] ... 0.310115

Power coefficient["1"] ... 0.308058

Power coefficient["2"] ... 0.307974

Power coefficient["3"] ... 0.304853

smoothSolver:  Solving for Ux, Initial residual = 0.0131382, Final residual = 0.00127118, No Iterations 3
smoothSolver:  Solving for Uy, Initial residual = 0.0140499, Final residual = 0.00133605, No Iterations 3
GAMG:  Solving for p, Initial residual = 0.0151891, Final residual = 0.000852296, No Iterations 3
time step continuity errors : sum local = 6.21267e-06, global = -2.13974e-06, cumulative = -6.89271e-05
smoothSolver:  Solving for epsilon, Initial residual = 0.160689, Final residual = 0.0131363, No Iterations 3
smoothSolver:  Solving for k, Initial residual = 0.150671, Final residual = 0.0141968, No Iterations 3
ExecutionTime = 56.51 s  ClockTime = 57 s

Time = 35

Power coefficient["0"] ... 0.309779

Power coefficient["1"] ... 0.307695

Power coefficient["2"] ... 0.307615

Power coefficient["3"] ... 0.304486

smoothSolver:  Solving for Ux, Initial residual = 0.0126957, Final residual = 0.00122952, No Iterations 3
smoothSolver:  Solving for Uy, Initial residual = 0.0135666, Final residual = 0.00129101, No Iterations 3
GAMG:  Solving for p, Initial residual = 0.014259, Final residual = 0.000810416, No Iterations 3
time step continuity errors : sum local = 5.90717e-06, global = -1.81126e-06, cumulative = -7.07384e-05
smoothSolver:  Solving for epsilon, Initial residual = 0.153273, Final residual = 0.0125377, No Iterations 3
smoothSolver:  Solving for k, Initial residual = 0.14382, Final residual = 0.0135579, No Iterations 3
ExecutionTime = 58.01 s  ClockTime = 59 s

Time = 36

Power coefficient["0"] ... 0.309429

Power coefficient["1"] ... 0.307336

Power coefficient["2"] ... 0.307258

Power coefficient["3"] ... 0.30415

smoothSolver:  Solving for Ux, Initial residual = 0.0122856, Final residual = 0.00119096, No Iterations 3
smoothSolver:  Solving for Uy, Initial residual = 0.0130678, Final residual = 0.00124441, No Iterations 3
GAMG:  Solving for p, Initial residual = 0.0135022, Final residual = 0.000735046, No Iterations 3
time step continuity errors : sum local = 5.3561e-06, global = -1.0833e-06, cumulative = -7.18217e-05
smoothSolver:  Solving for epsilon, Initial residual = 0.14635, Final residual = 0.0119778, No Iterations 3
smoothSolver:  Solving for k, Initial residual = 0.137429, Final residual = 0.0129608, No Iterations 3
ExecutionTime = 59.5 s  ClockTime = 60 s

Time = 37

Power coefficient["0"] ... 0.309121

Power coefficient["1"] ... 0.307239

Power coefficient["2"] ... 0.307162

Power coefficient["3"] ... 0.304132

smoothSolver:  Solving for Ux, Initial residual = 0.0119289, Final residual = 0.00115737, No Iterations 3
smoothSolver:  Solving for Uy, Initial residual = 0.0126572, Final residual = 0.00120606, No Iterations 3
GAMG:  Solving for p, Initial residual = 0.0126817, Final residual = 0.000639143, No Iterations 3
time step continuity errors : sum local = 4.65854e-06, global = -9.74697e-07, cumulative = -7.27964e-05
smoothSolver:  Solving for epsilon, Initial residual = 0.139849, Final residual = 0.011453, No Iterations 3
smoothSolver:  Solving for k, Initial residual = 0.131437, Final residual = 0.012402, No Iterations 3
ExecutionTime = 61.1 s  ClockTime = 62 s

Time = 38

Power coefficient["0"] ... 0.309165

Power coefficient["1"] ... 0.307257

Power coefficient["2"] ... 0.307182

Power coefficient["3"] ... 0.304154

smoothSolver:  Solving for Ux, Initial residual = 0.0116173, Final residual = 0.00112804, No Iterations 3
smoothSolver:  Solving for Uy, Initial residual = 0.0123456, Final residual = 0.00117711, No Iterations 3
GAMG:  Solving for p, Initial residual = 0.0122378, Final residual = 0.000597497, No Iterations 3
time step continuity errors : sum local = 4.36343e-06, global = -1.16868e-06, cumulative = -7.39651e-05
smoothSolver:  Solving for epsilon, Initial residual = 0.133765, Final residual = 0.0109608, No Iterations 3
smoothSolver:  Solving for k, Initial residual = 0.125835, Final residual = 0.0118785, No Iterations 3
ExecutionTime = 62.68 s  ClockTime = 63 s

Time = 39

Power coefficient["0"] ... 0.309281

Power coefficient["1"] ... 0.307271

Power coefficient["2"] ... 0.307198

Power coefficient["3"] ... 0.304183

smoothSolver:  Solving for Ux, Initial residual = 0.0113429, Final residual = 0.0011021, No Iterations 3
smoothSolver:  Solving for Uy, Initial residual = 0.0120987, Final residual = 0.00115417, No Iterations 3
GAMG:  Solving for p, Initial residual = 0.0117779, Final residual = 0.000528399, No Iterations 3
time step continuity errors : sum local = 3.86888e-06, global = -9.70652e-07, cumulative = -7.49357e-05
smoothSolver:  Solving for epsilon, Initial residual = 0.128038, Final residual = 0.0104982, No Iterations 3
smoothSolver:  Solving for k, Initial residual = 0.120565, Final residual = 0.0113869, No Iterations 3
ExecutionTime = 64.18 s  ClockTime = 65 s

Time = 40

Power coefficient["0"] ... 0.309419

Power coefficient["1"] ... 0.307291

Power coefficient["2"] ... 0.307219

Power coefficient["3"] ... 0.304203

smoothSolver:  Solving for Ux, Initial residual = 0.0110802, Final residual = 0.00107727, No Iterations 3
smoothSolver:  Solving for Uy, Initial residual = 0.0118549, Final residual = 0.00113157, No Iterations 3
GAMG:  Solving for p, Initial residual = 0.0111543, Final residual = 0.000464855, No Iterations 3
time step continuity errors : sum local = 3.41062e-06, global = -8.04818e-07, cumulative = -7.57405e-05
smoothSolver:  Solving for epsilon, Initial residual = 0.122662, Final residual = 0.0100637, No Iterations 3
smoothSolver:  Solving for k, Initial residual = 0.115623, Final residual = 0.0109256, No Iterations 3
ExecutionTime = 65.67 s  ClockTime = 66 s

Time = 41

Power coefficient["0"] ... 0.309563

Power coefficient["1"] ... 0.30731

Power coefficient["2"] ... 0.30724

Power coefficient["3"] ... 0.304221

smoothSolver:  Solving for Ux, Initial residual = 0.0108143, Final residual = 0.00105215, No Iterations 3
smoothSolver:  Solving for Uy, Initial residual = 0.0115814, Final residual = 0.00110607, No Iterations 3
GAMG:  Solving for p, Initial residual = 0.0107688, Final residual = 0.000470213, No Iterations 3
time step continuity errors : sum local = 3.45483e-06, global = -8.91238e-07, cumulative = -7.66318e-05
smoothSolver:  Solving for epsilon, Initial residual = 0.117617, Final residual = 0.0096554, No Iterations 3
smoothSolver:  Solving for k, Initial residual = 0.110989, Final residual = 0.0104925, No Iterations 3
ExecutionTime = 67.19 s  ClockTime = 68 s

Time = 42

Power coefficient["0"] ... 0.309711

Power coefficient["1"] ... 0.307331

Power coefficient["2"] ... 0.307262

Power coefficient["3"] ... 0.304241

smoothSolver:  Solving for Ux, Initial residual = 0.010543, Final residual = 0.00102653, No Iterations 3
smoothSolver:  Solving for Uy, Initial residual = 0.0112818, Final residual = 0.0010781, No Iterations 3
GAMG:  Solving for p, Initial residual = 0.0104343, Final residual = 0.000456428, No Iterations 3
time step continuity errors : sum local = 3.35692e-06, global = -8.18875e-07, cumulative = -7.74506e-05
smoothSolver:  Solving for epsilon, Initial residual = 0.112858, Final residual = 0.00927069, No Iterations 3
smoothSolver:  Solving for k, Initial residual = 0.106619, Final residual = 0.0100846, No Iterations 3
ExecutionTime = 68.67 s  ClockTime = 69 s

Time = 43

Power coefficient["0"] ... 0.309865

Power coefficient["1"] ... 0.307358

Power coefficient["2"] ... 0.30729

Power coefficient["3"] ... 0.304265

smoothSolver:  Solving for Ux, Initial residual = 0.0102738, Final residual = 0.00100112, No Iterations 3
smoothSolver:  Solving for Uy, Initial residual = 0.0109864, Final residual = 0.00105048, No Iterations 3
GAMG:  Solving for p, Initial residual = 0.00996677, Final residual = 0.000419199, No Iterations 3
time step continuity errors : sum local = 3.0859e-06, global = -5.68393e-07, cumulative = -7.8019e-05
smoothSolver:  Solving for epsilon, Initial residual = 0.108382, Final residual = 0.00890823, No Iterations 3
smoothSolver:  Solving for k, Initial residual = 0.102512, Final residual = 0.00970052, No Iterations 3
ExecutionTime = 70.18 s  ClockTime = 71 s

Time = 44

Power coefficient["0"] ... 0.310089

Power coefficient["1"] ... 0.307391

Power coefficient["2"] ... 0.307324

Power coefficient["3"] ... 0.304308

smoothSolver:  Solving for Ux, Initial residual = 0.0100216, Final residual = 0.000977271, No Iterations 3
smoothSolver:  Solving for Uy, Initial residual = 0.010727, Final residual = 0.00102628, No Iterations 3
GAMG:  Solving for p, Initial residual = 0.00953551, Final residual = 0.000927123, No Iterations 2
time step continuity errors : sum local = 6.83313e-06, global = 7.7354e-07, cumulative = -7.72455e-05
smoothSolver:  Solving for epsilon, Initial residual = 0.104152, Final residual = 0.0085661, No Iterations 3
smoothSolver:  Solving for k, Initial residual = 0.0986283, Final residual = 0.009338, No Iterations 3
ExecutionTime = 71.6 s  ClockTime = 72 s

Time = 45

Power coefficient["0"] ... 0.310321

Power coefficient["1"] ... 0.307461

Power coefficient["2"] ... 0.307394

Power coefficient["3"] ... 0.304463

smoothSolver:  Solving for Ux, Initial residual = 0.00979639, Final residual = 0.000955961, No Iterations 3
smoothSolver:  Solving for Uy, Initial residual = 0.0105043, Final residual = 0.00100557, No Iterations 3
GAMG:  Solving for p, Initial residual = 0.00966568, Final residual = 0.000470756, No Iterations 3
time step continuity errors : sum local = 3.4747e-06, global = -5.15287e-07, cumulative = -7.77608e-05
smoothSolver:  Solving for epsilon, Initial residual = 0.100165, Final residual = 0.0082428, No Iterations 3
smoothSolver:  Solving for k, Initial residual = 0.0949732, Final residual = 0.00899569, No Iterations 3
ExecutionTime = 73.17 s  ClockTime = 74 s

Time = 46

Power coefficient["0"] ... 0.310561

Power coefficient["1"] ... 0.30756

Power coefficient["2"] ... 0.307494

Power coefficient["3"] ... 0.304668

smoothSolver:  Solving for Ux, Initial residual = 0.00958786, Final residual = 0.000936187, No Iterations 3
smoothSolver:  Solving for Uy, Initial residual = 0.010302, Final residual = 0.000986652, No Iterations 3
GAMG:  Solving for p, Initial residual = 0.0090822, Final residual = 0.000394574, No Iterations 3
time step continuity errors : sum local = 2.91877e-06, global = -3.62813e-07, cumulative = -7.81236e-05
smoothSolver:  Solving for epsilon, Initial residual = 0.0964, Final residual = 0.00793778, No Iterations 3
smoothSolver:  Solving for k, Initial residual = 0.0915177, Final residual = 0.00867271, No Iterations 3
ExecutionTime = 74.66 s  ClockTime = 75 s

Time = 47

Power coefficient["0"] ... 0.310816

Power coefficient["1"] ... 0.307721

Power coefficient["2"] ... 0.30765

Power coefficient["3"] ... 0.304882

smoothSolver:  Solving for Ux, Initial residual = 0.00939604, Final residual = 0.000918013, No Iterations 3
smoothSolver:  Solving for Uy, Initial residual = 0.0101047, Final residual = 0.000968251, No Iterations 3
GAMG:  Solving for p, Initial residual = 0.00878278, Final residual = 0.000782062, No Iterations 2
time step continuity errors : sum local = 5.79762e-06, global = 6.34924e-07, cumulative = -7.74887e-05
smoothSolver:  Solving for epsilon, Initial residual = 0.0928413, Final residual = 0.00764914, No Iterations 3
smoothSolver:  Solving for k, Initial residual = 0.088254, Final residual = 0.00836714, No Iterations 3
ExecutionTime = 76.15 s  ClockTime = 77 s

Time = 48

Power coefficient["0"] ... 0.311086

Power coefficient["1"] ... 0.307945

Power coefficient["2"] ... 0.307874

Power coefficient["3"] ... 0.305114

smoothSolver:  Solving for Ux, Initial residual = 0.00920855, Final residual = 0.000900245, No Iterations 3
smoothSolver:  Solving for Uy, Initial residual = 0.00990696, Final residual = 0.000949804, No Iterations 3
GAMG:  Solving for p, Initial residual = 0.00898109, Final residual = 0.000370963, No Iterations 3
time step continuity errors : sum local = 2.75432e-06, global = -5.39474e-07, cumulative = -7.80281e-05
smoothSolver:  Solving for epsilon, Initial residual = 0.0894623, Final residual = 0.00737538, No Iterations 3
smoothSolver:  Solving for k, Initial residual = 0.0851551, Final residual = 0.00807737, No Iterations 3
ExecutionTime = 77.71 s  ClockTime = 78 s

Time = 49

Power coefficient["0"] ... 0.311384

Power coefficient["1"] ... 0.308185

Power coefficient["2"] ... 0.308115

Power coefficient["3"] ... 0.30535

smoothSolver:  Solving for Ux, Initial residual = 0.00902772, Final residual = 0.000883105, No Iterations 3
smoothSolver:  Solving for Uy, Initial residual = 0.00970917, Final residual = 0.000931304, No Iterations 3
GAMG:  Solving for p, Initial residual = 0.00853533, Final residual = 0.000770582, No Iterations 2
time step continuity errors : sum local = 5.73197e-06, global = 6.50174e-07, cumulative = -7.7378e-05
smoothSolver:  Solving for epsilon, Initial residual = 0.0862649, Final residual = 0.00711603, No Iterations 3
smoothSolver:  Solving for k, Initial residual = 0.0822224, Final residual = 0.00780279, No Iterations 3
ExecutionTime = 79.17 s  ClockTime = 80 s

Time = 50

Power coefficient["0"] ... 0.311689

Power coefficient["1"] ... 0.30844

Power coefficient["2"] ... 0.308371

Power coefficient["3"] ... 0.305596

smoothSolver:  Solving for Ux, Initial residual = 0.00884865, Final residual = 0.000866122, No Iterations 3
smoothSolver:  Solving for Uy, Initial residual = 0.00952113, Final residual = 0.000913745, No Iterations 3
GAMG:  Solving for p, Initial residual = 0.0084725, Final residual = 0.000797247, No Iterations 2
time step continuity errors : sum local = 5.93737e-06, global = 7.00467e-07, cumulative = -7.66775e-05
smoothSolver:  Solving for epsilon, Initial residual = 0.0832351, Final residual = 0.00687004, No Iterations 3
smoothSolver:  Solving for k, Initial residual = 0.0794426, Final residual = 0.00754244, No Iterations 3
ExecutionTime = 80.66 s  ClockTime = 81 s

Time = 51

Power coefficient["0"] ... 0.311999

Power coefficient["1"] ... 0.308699

Power coefficient["2"] ... 0.308631

Power coefficient["3"] ... 0.305847

smoothSolver:  Solving for Ux, Initial residual = 0.0086723, Final residual = 0.000849403, No Iterations 3
smoothSolver:  Solving for Uy, Initial residual = 0.00933981, Final residual = 0.000896818, No Iterations 3
GAMG:  Solving for p, Initial residual = 0.00856761, Final residual = 0.000385627, No Iterations 3
time step continuity errors : sum local = 2.87637e-06, global = -4.61074e-07, cumulative = -7.71386e-05
smoothSolver:  Solving for epsilon, Initial residual = 0.080363, Final residual = 0.00663664, No Iterations 3
smoothSolver:  Solving for k, Initial residual = 0.0768058, Final residual = 0.0072952, No Iterations 3
ExecutionTime = 82.21 s  ClockTime = 83 s

Time = 52

Power coefficient["0"] ... 0.31231

Power coefficient["1"] ... 0.308962

Power coefficient["2"] ... 0.308895

Power coefficient["3"] ... 0.306095

smoothSolver:  Solving for Ux, Initial residual = 0.00849327, Final residual = 0.000832403, No Iterations 3
smoothSolver:  Solving for Uy, Initial residual = 0.00915972, Final residual = 0.000879893, No Iterations 3
GAMG:  Solving for p, Initial residual = 0.00809797, Final residual = 0.00075387, No Iterations 2
time step continuity errors : sum local = 5.63411e-06, global = 5.63106e-07, cumulative = -7.65755e-05
smoothSolver:  Solving for epsilon, Initial residual = 0.0776255, Final residual = 0.00641456, No Iterations 3
smoothSolver:  Solving for k, Initial residual = 0.0742932, Final residual = 0.00706004, No Iterations 3
ExecutionTime = 83.64 s  ClockTime = 84 s

Time = 53

Power coefficient["0"] ... 0.312621

Power coefficient["1"] ... 0.30921

Power coefficient["2"] ... 0.309142

Power coefficient["3"] ... 0.306327

smoothSolver:  Solving for Ux, Initial residual = 0.00833157, Final residual = 0.000817074, No Iterations 3
smoothSolver:  Solving for Uy, Initial residual = 0.00899593, Final residual = 0.000864614, No Iterations 3
GAMG:  Solving for p, Initial residual = 0.00806825, Final residual = 0.000785007, No Iterations 2
time step continuity errors : sum local = 5.87627e-06, global = 5.81525e-07, cumulative = -7.59939e-05
smoothSolver:  Solving for epsilon, Initial residual = 0.0750189, Final residual = 0.00620308, No Iterations 3
smoothSolver:  Solving for k, Initial residual = 0.0719002, Final residual = 0.00683605, No Iterations 3
ExecutionTime = 85.08 s  ClockTime = 86 s

Time = 54

Power coefficient["0"] ... 0.312924

Power coefficient["1"] ... 0.30946

Power coefficient["2"] ... 0.309392

Power coefficient["3"] ... 0.306531

smoothSolver:  Solving for Ux, Initial residual = 0.00817918, Final residual = 0.000802624, No Iterations 3
smoothSolver:  Solving for Uy, Initial residual = 0.00884053, Final residual = 0.000850073, No Iterations 3
GAMG:  Solving for p, Initial residual = 0.00803409, Final residual = 0.000369997, No Iterations 3
time step continuity errors : sum local = 2.77414e-06, global = -2.46723e-07, cumulative = -7.62407e-05
smoothSolver:  Solving for epsilon, Initial residual = 0.0725503, Final residual = 0.0060021, No Iterations 3
smoothSolver:  Solving for k, Initial residual = 0.0696327, Final residual = 0.00662315, No Iterations 3
ExecutionTime = 86.66 s  ClockTime = 87 s

Time = 55

Power coefficient["0"] ... 0.313026

Power coefficient["1"] ... 0.309403

Power coefficient["2"] ... 0.309331

Power coefficient["3"] ... 0.306413

smoothSolver:  Solving for Ux, Initial residual = 0.00803681, Final residual = 0.000789076, No Iterations 3
smoothSolver:  Solving for Uy, Initial residual = 0.00869118, Final residual = 0.000836055, No Iterations 3
GAMG:  Solving for p, Initial residual = 0.00749051, Final residual = 0.000665764, No Iterations 2
time step continuity errors : sum local = 5.00034e-06, global = 5.77138e-07, cumulative = -7.56635e-05
smoothSolver:  Solving for epsilon, Initial residual = 0.0701878, Final residual = 0.00581021, No Iterations 3
smoothSolver:  Solving for k, Initial residual = 0.0674626, Final residual = 0.00641985, No Iterations 3
ExecutionTime = 88.1 s  ClockTime = 89 s

Time = 56

Power coefficient["0"] ... 0.312883

Power coefficient["1"] ... 0.309309

Power coefficient["2"] ... 0.309238

Power coefficient["3"] ... 0.306314

smoothSolver:  Solving for Ux, Initial residual = 0.00789918, Final residual = 0.000775994, No Iterations 3
smoothSolver:  Solving for Uy, Initial residual = 0.00854662, Final residual = 0.000822531, No Iterations 3
GAMG:  Solving for p, Initial residual = 0.00741701, Final residual = 0.000700622, No Iterations 2
time step continuity errors : sum local = 5.26838e-06, global = 7.28396e-07, cumulative = -7.49351e-05
smoothSolver:  Solving for epsilon, Initial residual = 0.0679355, Final residual = 0.00562715, No Iterations 3
smoothSolver:  Solving for k, Initial residual = 0.0653926, Final residual = 0.00622579, No Iterations 3
ExecutionTime = 89.53 s  ClockTime = 90 s

Time = 57

Power coefficient["0"] ... 0.312756

Power coefficient["1"] ... 0.30923

Power coefficient["2"] ... 0.309159

Power coefficient["3"] ... 0.306226

smoothSolver:  Solving for Ux, Initial residual = 0.00776575, Final residual = 0.000763287, No Iterations 3
smoothSolver:  Solving for Uy, Initial residual = 0.00840687, Final residual = 0.000809448, No Iterations 3
GAMG:  Solving for p, Initial residual = 0.00750205, Final residual = 0.000347492, No Iterations 3
time step continuity errors : sum local = 2.61635e-06, global = -3.72832e-07, cumulative = -7.5308e-05
smoothSolver:  Solving for epsilon, Initial residual = 0.06579, Final residual = 0.00545259, No Iterations 3
smoothSolver:  Solving for k, Initial residual = 0.063421, Final residual = 0.0060408, No Iterations 3
ExecutionTime = 91.06 s  ClockTime = 92 s

Time = 58

Power coefficient["0"] ... 0.312677

Power coefficient["1"] ... 0.30916

Power coefficient["2"] ... 0.30909

Power coefficient["3"] ... 0.306148

smoothSolver:  Solving for Ux, Initial residual = 0.007635, Final residual = 0.000750808, No Iterations 3
smoothSolver:  Solving for Uy, Initial residual = 0.00826954, Final residual = 0.000796508, No Iterations 3
GAMG:  Solving for p, Initial residual = 0.00707279, Final residual = 0.000652078, No Iterations 2
time step continuity errors : sum local = 4.91806e-06, global = 5.9088e-07, cumulative = -7.47171e-05
smoothSolver:  Solving for epsilon, Initial residual = 0.0637411, Final residual = 0.00528601, No Iterations 3
smoothSolver:  Solving for k, Initial residual = 0.0615352, Final residual = 0.00586408, No Iterations 3
ExecutionTime = 92.48 s  ClockTime = 93 s

Time = 59

Power coefficient["0"] ... 0.312612

Power coefficient["1"] ... 0.309099

Power coefficient["2"] ... 0.30903

Power coefficient["3"] ... 0.30608

smoothSolver:  Solving for Ux, Initial residual = 0.00750602, Final residual = 0.000738528, No Iterations 3
smoothSolver:  Solving for Uy, Initial residual = 0.00813397, Final residual = 0.000783825, No Iterations 3
GAMG:  Solving for p, Initial residual = 0.00692245, Final residual = 0.000651681, No Iterations 2
time step continuity errors : sum local = 4.92096e-06, global = 5.35245e-07, cumulative = -7.41818e-05
smoothSolver:  Solving for epsilon, Initial residual = 0.0617906, Final residual = 0.00512696, No Iterations 3
smoothSolver:  Solving for k, Initial residual = 0.0597409, Final residual = 0.00569539, No Iterations 3
ExecutionTime = 93.93 s  ClockTime = 94 s

Time = 60

Power coefficient["0"] ... 0.312559

Power coefficient["1"] ... 0.309053

Power coefficient["2"] ... 0.308984

Power coefficient["3"] ... 0.306043

smoothSolver:  Solving for Ux, Initial residual = 0.00737915, Final residual = 0.000726433, No Iterations 3
smoothSolver:  Solving for Uy, Initial residual = 0.008001, Final residual = 0.000771326, No Iterations 3
GAMG:  Solving for p, Initial residual = 0.00693718, Final residual = 0.0003109, No Iterations 3
time step continuity errors : sum local = 2.35056e-06, global = -3.74911e-07, cumulative = -7.45568e-05
smoothSolver:  Solving for epsilon, Initial residual = 0.0599198, Final residual = 0.00497474, No Iterations 3
smoothSolver:  Solving for k, Initial residual = 0.0580183, Final residual = 0.0055338, No Iterations 3
ExecutionTime = 95.41 s  ClockTime = 96 s

Time = 61

Power coefficient["0"] ... 0.312142

Power coefficient["1"] ... 0.309052

Power coefficient["2"] ... 0.30898

Power coefficient["3"] ... 0.30602

smoothSolver:  Solving for Ux, Initial residual = 0.00724996, Final residual = 0.000714095, No Iterations 3
smoothSolver:  Solving for Uy, Initial residual = 0.00786845, Final residual = 0.000758855, No Iterations 3
GAMG:  Solving for p, Initial residual = 0.00659964, Final residual = 0.000603623, No Iterations 2
time step continuity errors : sum local = 4.56963e-06, global = 4.32778e-07, cumulative = -7.4124e-05
smoothSolver:  Solving for epsilon, Initial residual = 0.0581299, Final residual = 0.00482898, No Iterations 3
smoothSolver:  Solving for k, Initial residual = 0.0563699, Final residual = 0.00537903, No Iterations 3
ExecutionTime = 96.86 s  ClockTime = 97 s

Time = 62

Power coefficient["0"] ... 0.311691

Power coefficient["1"] ... 0.309069

Power coefficient["2"] ... 0.308998

Power coefficient["3"] ... 0.30601

smoothSolver:  Solving for Ux, Initial residual = 0.0071316, Final residual = 0.000702802, No Iterations 3
smoothSolver:  Solving for Uy, Initial residual = 0.0077455, Final residual = 0.00074732, No Iterations 3
GAMG:  Solving for p, Initial residual = 0.00663307, Final residual = 0.000637755, No Iterations 2
time step continuity errors : sum local = 4.83297e-06, global = 4.91707e-07, cumulative = -7.36323e-05
smoothSolver:  Solving for epsilon, Initial residual = 0.0564182, Final residual = 0.0046896, No Iterations 3
smoothSolver:  Solving for k, Initial residual = 0.0547912, Final residual = 0.00523092, No Iterations 3
ExecutionTime = 98.28 s  ClockTime = 99 s

Time = 63

Power coefficient["0"] ... 0.31127

Power coefficient["1"] ... 0.309096

Power coefficient["2"] ... 0.309025

Power coefficient["3"] ... 0.30601

smoothSolver:  Solving for Ux, Initial residual = 0.0070188, Final residual = 0.000692038, No Iterations 3
smoothSolver:  Solving for Uy, Initial residual = 0.00762821, Final residual = 0.000736298, No Iterations 3
GAMG:  Solving for p, Initial residual = 0.00670824, Final residual = 0.000314294, No Iterations 3
time step continuity errors : sum local = 2.38454e-06, global = -2.47394e-07, cumulative = -7.38797e-05
smoothSolver:  Solving for epsilon, Initial residual = 0.0547812, Final residual = 0.00455608, No Iterations 3
smoothSolver:  Solving for k, Initial residual = 0.0532808, Final residual = 0.00508896, No Iterations 3
ExecutionTime = 99.8 s  ClockTime = 100 s

Time = 64

Power coefficient["0"] ... 0.310855

Power coefficient["1"] ... 0.309128

Power coefficient["2"] ... 0.309056

Power coefficient["3"] ... 0.306016

smoothSolver:  Solving for Ux, Initial residual = 0.00691068, Final residual = 0.000681688, No Iterations 3
smoothSolver:  Solving for Uy, Initial residual = 0.0075155, Final residual = 0.000725668, No Iterations 3
GAMG:  Solving for p, Initial residual = 0.0063607, Final residual = 0.000581133, No Iterations 2
time step continuity errors : sum local = 4.41532e-06, global = 5.32092e-07, cumulative = -7.33476e-05
smoothSolver:  Solving for epsilon, Initial residual = 0.0532169, Final residual = 0.00442823, No Iterations 3
smoothSolver:  Solving for k, Initial residual = 0.0518369, Final residual = 0.00495298, No Iterations 3
ExecutionTime = 101.22 s  ClockTime = 102 s

Time = 65

Power coefficient["0"] ... 0.310453

Power coefficient["1"] ... 0.309143

Power coefficient["2"] ... 0.309072

Power coefficient["3"] ... 0.306029

smoothSolver:  Solving for Ux, Initial residual = 0.00680766, Final residual = 0.000671829, No Iterations 3
smoothSolver:  Solving for Uy, Initial residual = 0.00740661, Final residual = 0.000715441, No Iterations 3
GAMG:  Solving for p, Initial residual = 0.00633092, Final residual = 0.00059189, No Iterations 2
time step continuity errors : sum local = 4.50237e-06, global = 6.30803e-07, cumulative = -7.27168e-05
smoothSolver:  Solving for epsilon, Initial residual = 0.0517097, Final residual = 0.00430544, No Iterations 3
smoothSolver:  Solving for k, Initial residual = 0.0504446, Final residual = 0.00482231, No Iterations 3
ExecutionTime = 102.68 s  ClockTime = 103 s

Time = 66

Power coefficient["0"] ... 0.310068

Power coefficient["1"] ... 0.309168

Power coefficient["2"] ... 0.309098

Power coefficient["3"] ... 0.306052

smoothSolver:  Solving for Ux, Initial residual = 0.00670744, Final residual = 0.000662244, No Iterations 3
smoothSolver:  Solving for Uy, Initial residual = 0.00730005, Final residual = 0.000705436, No Iterations 3
GAMG:  Solving for p, Initial residual = 0.00637333, Final residual = 0.000298779, No Iterations 3
time step continuity errors : sum local = 2.2757e-06, global = -2.74424e-07, cumulative = -7.29912e-05
smoothSolver:  Solving for epsilon, Initial residual = 0.0502666, Final residual = 0.00418763, No Iterations 3
smoothSolver:  Solving for k, Initial residual = 0.049111, Final residual = 0.00469691, No Iterations 3
ExecutionTime = 104.18 s  ClockTime = 105 s

Time = 67

Power coefficient["0"] ... 0.30969

Power coefficient["1"] ... 0.309204

Power coefficient["2"] ... 0.309134

Power coefficient["3"] ... 0.306095

smoothSolver:  Solving for Ux, Initial residual = 0.00660892, Final residual = 0.000652796, No Iterations 3
smoothSolver:  Solving for Uy, Initial residual = 0.00719395, Final residual = 0.0006954, No Iterations 3
GAMG:  Solving for p, Initial residual = 0.00608488, Final residual = 0.000558711, No Iterations 2
time step continuity errors : sum local = 4.26276e-06, global = 5.47272e-07, cumulative = -7.24439e-05
smoothSolver:  Solving for epsilon, Initial residual = 0.0488799, Final residual = 0.00407441, No Iterations 3
smoothSolver:  Solving for k, Initial residual = 0.0478287, Final residual = 0.00457628, No Iterations 3
ExecutionTime = 105.61 s  ClockTime = 106 s

Time = 68

Power coefficient["0"] ... 0.309328

Power coefficient["1"] ... 0.309256

Power coefficient["2"] ... 0.309187

Power coefficient["3"] ... 0.306153

smoothSolver:  Solving for Ux, Initial residual = 0.00651266, Final residual = 0.00064359, No Iterations 3
smoothSolver:  Solving for Uy, Initial residual = 0.00709088, Final residual = 0.000685711, No Iterations 3
GAMG:  Solving for p, Initial residual = 0.00602327, Final residual = 0.000564856, No Iterations 2
time step continuity errors : sum local = 4.3145e-06, global = 5.30407e-07, cumulative = -7.19135e-05
smoothSolver:  Solving for epsilon, Initial residual = 0.047549, Final residual = 0.00396576, No Iterations 3
smoothSolver:  Solving for k, Initial residual = 0.0465967, Final residual = 0.00446047, No Iterations 3
ExecutionTime = 107.04 s  ClockTime = 108 s

Time = 69

Power coefficient["0"] ... 0.308981

Power coefficient["1"] ... 0.309304

Power coefficient["2"] ... 0.309236

Power coefficient["3"] ... 0.305776

smoothSolver:  Solving for Ux, Initial residual = 0.00641776, Final residual = 0.000634502, No Iterations 3
smoothSolver:  Solving for Uy, Initial residual = 0.00699006, Final residual = 0.000676219, No Iterations 3
GAMG:  Solving for p, Initial residual = 0.00601727, Final residual = 0.000595619, No Iterations 2
time step continuity errors : sum local = 4.55446e-06, global = 6.37017e-07, cumulative = -7.12765e-05
smoothSolver:  Solving for epsilon, Initial residual = 0.0462763, Final residual = 0.00386157, No Iterations 3
smoothSolver:  Solving for k, Initial residual = 0.0454177, Final residual = 0.00434932, No Iterations 3
ExecutionTime = 108.48 s  ClockTime = 109 s

Time = 70

Power coefficient["0"] ... 0.308648

Power coefficient["1"] ... 0.309353

Power coefficient["2"] ... 0.309286

Power coefficient["3"] ... 0.305412

smoothSolver:  Solving for Ux, Initial residual = 0.00632485, Final residual = 0.000625587, No Iterations 3
smoothSolver:  Solving for Uy, Initial residual = 0.00689069, Final residual = 0.000666834, No Iterations 3
GAMG:  Solving for p, Initial residual = 0.00608456, Final residual = 0.000283147, No Iterations 3
time step continuity errors : sum local = 2.16741e-06, global = -3.2607e-07, cumulative = -7.16026e-05
smoothSolver:  Solving for epsilon, Initial residual = 0.0450489, Final residual = 0.00376114, No Iterations 3
smoothSolver:  Solving for k, Initial residual = 0.04428, Final residual = 0.00424213, No Iterations 3
ExecutionTime = 109.98 s  ClockTime = 110 s

Time = 71

Power coefficient["0"] ... 0.308325

Power coefficient["1"] ... 0.309071

Power coefficient["2"] ... 0.309029

Power coefficient["3"] ... 0.30507

smoothSolver:  Solving for Ux, Initial residual = 0.00623102, Final residual = 0.000616549, No Iterations 3
smoothSolver:  Solving for Uy, Initial residual = 0.00679012, Final residual = 0.000657343, No Iterations 3
GAMG:  Solving for p, Initial residual = 0.00572347, Final residual = 0.000492457, No Iterations 2
time step continuity errors : sum local = 3.77402e-06, global = 5.2068e-07, cumulative = -7.10819e-05
smoothSolver:  Solving for epsilon, Initial residual = 0.0438664, Final residual = 0.0036645, No Iterations 3
smoothSolver:  Solving for k, Initial residual = 0.0431827, Final residual = 0.0041389, No Iterations 3
ExecutionTime = 111.41 s  ClockTime = 112 s

Time = 72

Power coefficient["0"] ... 0.308015

Power coefficient["1"] ... 0.308736

Power coefficient["2"] ... 0.308692

Power coefficient["3"] ... 0.304742

smoothSolver:  Solving for Ux, Initial residual = 0.00614325, Final residual = 0.000608113, No Iterations 3
smoothSolver:  Solving for Uy, Initial residual = 0.00669607, Final residual = 0.000648489, No Iterations 3
GAMG:  Solving for p, Initial residual = 0.00563944, Final residual = 0.000475853, No Iterations 2
time step continuity errors : sum local = 3.64954e-06, global = 5.32457e-07, cumulative = -7.05494e-05
smoothSolver:  Solving for epsilon, Initial residual = 0.0427258, Final residual = 0.00357128, No Iterations 3
smoothSolver:  Solving for k, Initial residual = 0.0421239, Final residual = 0.00403928, No Iterations 3
ExecutionTime = 112.86 s  ClockTime = 113 s

Time = 73

Power coefficient["0"] ... 0.307718

Power coefficient["1"] ... 0.308427

Power coefficient["2"] ... 0.308383

Power coefficient["3"] ... 0.30443

smoothSolver:  Solving for Ux, Initial residual = 0.00605864, Final residual = 0.000599982, No Iterations 3
smoothSolver:  Solving for Uy, Initial residual = 0.00660537, Final residual = 0.000639921, No Iterations 3
GAMG:  Solving for p, Initial residual = 0.00563477, Final residual = 0.000515811, No Iterations 2
time step continuity errors : sum local = 3.95921e-06, global = 6.44317e-07, cumulative = -6.99051e-05
smoothSolver:  Solving for epsilon, Initial residual = 0.0416336, Final residual = 0.00348166, No Iterations 3
smoothSolver:  Solving for k, Initial residual = 0.0411093, Final residual = 0.00394344, No Iterations 3
ExecutionTime = 114.28 s  ClockTime = 115 s

Time = 74

Power coefficient["0"] ... 0.307468

Power coefficient["1"] ... 0.308132

Power coefficient["2"] ... 0.308088

Power coefficient["3"] ... 0.304134

smoothSolver:  Solving for Ux, Initial residual = 0.00597691, Final residual = 0.000592105, No Iterations 3
smoothSolver:  Solving for Uy, Initial residual = 0.00651767, Final residual = 0.000631606, No Iterations 3
GAMG:  Solving for p, Initial residual = 0.00565195, Final residual = 0.000561288, No Iterations 2
time step continuity errors : sum local = 4.31233e-06, global = 8.08901e-07, cumulative = -6.90962e-05
smoothSolver:  Solving for epsilon, Initial residual = 0.0405784, Final residual = 0.00339527, No Iterations 3
smoothSolver:  Solving for k, Initial residual = 0.0401277, Final residual = 0.00385099, No Iterations 3
ExecutionTime = 115.7 s  ClockTime = 116 s

Time = 75

Power coefficient["0"] ... 0.307251

Power coefficient["1"] ... 0.30785

Power coefficient["2"] ... 0.307806

Power coefficient["3"] ... 0.303855

smoothSolver:  Solving for Ux, Initial residual = 0.00589692, Final residual = 0.000584403, No Iterations 3
smoothSolver:  Solving for Uy, Initial residual = 0.00643171, Final residual = 0.00062348, No Iterations 3
GAMG:  Solving for p, Initial residual = 0.00561591, Final residual = 0.000266973, No Iterations 3
time step continuity errors : sum local = 2.05337e-06, global = -2.90468e-07, cumulative = -6.93867e-05
smoothSolver:  Solving for epsilon, Initial residual = 0.0395652, Final residual = 0.00331219, No Iterations 3
smoothSolver:  Solving for k, Initial residual = 0.0391841, Final residual = 0.00376199, No Iterations 3
ExecutionTime = 117.21 s  ClockTime = 118 s

Time = 76

Power coefficient["0"] ... 0.307043

Power coefficient["1"] ... 0.307581

Power coefficient["2"] ... 0.307537

Power coefficient["3"] ... 0.303591

smoothSolver:  Solving for Ux, Initial residual = 0.00581739, Final residual = 0.000576723, No Iterations 3
smoothSolver:  Solving for Uy, Initial residual = 0.00634581, Final residual = 0.000615319, No Iterations 3
GAMG:  Solving for p, Initial residual = 0.00531922, Final residual = 0.000469646, No Iterations 2
time step continuity errors : sum local = 3.6177e-06, global = 5.98808e-07, cumulative = -6.87879e-05
smoothSolver:  Solving for epsilon, Initial residual = 0.0385876, Final residual = 0.00323201, No Iterations 3
smoothSolver:  Solving for k, Initial residual = 0.0382736, Final residual = 0.00367607, No Iterations 3
ExecutionTime = 118.63 s  ClockTime = 119 s

Time = 77

Power coefficient["0"] ... 0.306844

Power coefficient["1"] ... 0.307329

Power coefficient["2"] ... 0.307285

Power coefficient["3"] ... 0.30334

smoothSolver:  Solving for Ux, Initial residual = 0.00574132, Final residual = 0.000569386, No Iterations 3
smoothSolver:  Solving for Uy, Initial residual = 0.0062636, Final residual = 0.000607567, No Iterations 3
GAMG:  Solving for p, Initial residual = 0.00524364, Final residual = 0.00044699, No Iterations 2
time step continuity errors : sum local = 3.44598e-06, global = 5.27712e-07, cumulative = -6.82602e-05
smoothSolver:  Solving for epsilon, Initial residual = 0.0376432, Final residual = 0.00315448, No Iterations 3
smoothSolver:  Solving for k, Initial residual = 0.037393, Final residual = 0.00359292, No Iterations 3
ExecutionTime = 120.07 s  ClockTime = 121 s

Time = 78

Power coefficient["0"] ... 0.306654

Power coefficient["1"] ... 0.307091

Power coefficient["2"] ... 0.307047

Power coefficient["3"] ... 0.303152

smoothSolver:  Solving for Ux, Initial residual = 0.00566717, Final residual = 0.000562241, No Iterations 3
smoothSolver:  Solving for Uy, Initial residual = 0.00618341, Final residual = 0.000599995, No Iterations 3
GAMG:  Solving for p, Initial residual = 0.00522503, Final residual = 0.000477914, No Iterations 2
time step continuity errors : sum local = 3.68732e-06, global = 6.19583e-07, cumulative = -6.76406e-05
smoothSolver:  Solving for epsilon, Initial residual = 0.0367313, Final residual = 0.00307962, No Iterations 3
smoothSolver:  Solving for k, Initial residual = 0.0365421, Final residual = 0.0035126, No Iterations 3
ExecutionTime = 121.52 s  ClockTime = 122 s

Time = 79

Power coefficient["0"] ... 0.306474

Power coefficient["1"] ... 0.306899

Power coefficient["2"] ... 0.306852

Power coefficient["3"] ... 0.302976

smoothSolver:  Solving for Ux, Initial residual = 0.00559493, Final residual = 0.000555284, No Iterations 3
smoothSolver:  Solving for Uy, Initial residual = 0.00610514, Final residual = 0.000592586, No Iterations 3
GAMG:  Solving for p, Initial residual = 0.00526418, Final residual = 0.000239138, No Iterations 3
time step continuity errors : sum local = 1.84671e-06, global = -3.09903e-07, cumulative = -6.79505e-05
smoothSolver:  Solving for epsilon, Initial residual = 0.0358589, Final residual = 0.00300778, No Iterations 3
smoothSolver:  Solving for k, Initial residual = 0.0357272, Final residual = 0.00343546, No Iterations 3
ExecutionTime = 123.02 s  ClockTime = 124 s

Time = 80

Power coefficient["0"] ... 0.30631

Power coefficient["1"] ... 0.306735

Power coefficient["2"] ... 0.306688

Power coefficient["3"] ... 0.30281

smoothSolver:  Solving for Ux, Initial residual = 0.00552335, Final residual = 0.000548353, No Iterations 3
smoothSolver:  Solving for Uy, Initial residual = 0.00602682, Final residual = 0.000585122, No Iterations 3
GAMG:  Solving for p, Initial residual = 0.00507786, Final residual = 0.000450872, No Iterations 2
time step continuity errors : sum local = 3.48604e-06, global = 5.47169e-07, cumulative = -6.74033e-05
smoothSolver:  Solving for epsilon, Initial residual = 0.0350055, Final residual = 0.00293789, No Iterations 3
smoothSolver:  Solving for k, Initial residual = 0.0349294, Final residual = 0.00336033, No Iterations 3
ExecutionTime = 124.44 s  ClockTime = 125 s

Time = 81

Power coefficient["0"] ... 0.30614

Power coefficient["1"] ... 0.30658

Power coefficient["2"] ... 0.306533

Power coefficient["3"] ... 0.302651

smoothSolver:  Solving for Ux, Initial residual = 0.00545481, Final residual = 0.000541753, No Iterations 3
smoothSolver:  Solving for Uy, Initial residual = 0.00595268, Final residual = 0.000578135, No Iterations 3
GAMG:  Solving for p, Initial residual = 0.0050174, Final residual = 0.000470255, No Iterations 2
time step continuity errors : sum local = 3.63894e-06, global = 5.70668e-07, cumulative = -6.68326e-05
smoothSolver:  Solving for epsilon, Initial residual = 0.0341835, Final residual = 0.00287034, No Iterations 3
smoothSolver:  Solving for k, Initial residual = 0.0341604, Final residual = 0.00328767, No Iterations 3
ExecutionTime = 125.88 s  ClockTime = 126 s

Time = 82

Power coefficient["0"] ... 0.305963

Power coefficient["1"] ... 0.306425

Power coefficient["2"] ... 0.306374

Power coefficient["3"] ... 0.302502

smoothSolver:  Solving for Ux, Initial residual = 0.00538805, Final residual = 0.000535306, No Iterations 3
smoothSolver:  Solving for Uy, Initial residual = 0.005881, Final residual = 0.000571356, No Iterations 3
GAMG:  Solving for p, Initial residual = 0.00500845, Final residual = 0.00023588, No Iterations 3
time step continuity errors : sum local = 1.82681e-06, global = -2.73897e-07, cumulative = -6.71065e-05
smoothSolver:  Solving for epsilon, Initial residual = 0.0333884, Final residual = 0.00280505, No Iterations 3
smoothSolver:  Solving for k, Initial residual = 0.033416, Final residual = 0.0032174, No Iterations 3
ExecutionTime = 127.37 s  ClockTime = 128 s

Time = 83

Power coefficient["0"] ... 0.305796

Power coefficient["1"] ... 0.306273

Power coefficient["2"] ... 0.306222

Power coefficient["3"] ... 0.302359

smoothSolver:  Solving for Ux, Initial residual = 0.00532171, Final residual = 0.000528891, No Iterations 3
smoothSolver:  Solving for Uy, Initial residual = 0.00581048, Final residual = 0.000564647, No Iterations 3
GAMG:  Solving for p, Initial residual = 0.00478123, Final residual = 0.000433259, No Iterations 2
time step continuity errors : sum local = 3.35929e-06, global = 5.33583e-07, cumulative = -6.6573e-05
smoothSolver:  Solving for epsilon, Initial residual = 0.0326218, Final residual = 0.002742, No Iterations 3
smoothSolver:  Solving for k, Initial residual = 0.032698, Final residual = 0.0031495, No Iterations 3
ExecutionTime = 128.8 s  ClockTime = 129 s

Time = 84

Power coefficient["0"] ... 0.305634

Power coefficient["1"] ... 0.306128

Power coefficient["2"] ... 0.306078

Power coefficient["3"] ... 0.302224

smoothSolver:  Solving for Ux, Initial residual = 0.00525838, Final residual = 0.000522769, No Iterations 3
smoothSolver:  Solving for Uy, Initial residual = 0.00574299, Final residual = 0.000558263, No Iterations 3
GAMG:  Solving for p, Initial residual = 0.00474671, Final residual = 0.000438251, No Iterations 2
time step continuity errors : sum local = 3.40046e-06, global = 5.94242e-07, cumulative = -6.59787e-05
smoothSolver:  Solving for epsilon, Initial residual = 0.0318886, Final residual = 0.00268132, No Iterations 3
smoothSolver:  Solving for k, Initial residual = 0.0320093, Final residual = 0.00308408, No Iterations 3
ExecutionTime = 130.23 s  ClockTime = 131 s

Time = 85

Power coefficient["0"] ... 0.305487

Power coefficient["1"] ... 0.305991

Power coefficient["2"] ... 0.305942

Power coefficient["3"] ... 0.302096

smoothSolver:  Solving for Ux, Initial residual = 0.00519651, Final residual = 0.000516794, No Iterations 3
smoothSolver:  Solving for Uy, Initial residual = 0.00567699, Final residual = 0.000552013, No Iterations 3
GAMG:  Solving for p, Initial residual = 0.0048152, Final residual = 0.00047878, No Iterations 2
time step continuity errors : sum local = 3.71829e-06, global = 7.37387e-07, cumulative = -6.52413e-05
smoothSolver:  Solving for epsilon, Initial residual = 0.0311718, Final residual = 0.00262226, No Iterations 3
smoothSolver:  Solving for k, Initial residual = 0.0313366, Final residual = 0.00302038, No Iterations 3
ExecutionTime = 131.67 s  ClockTime = 132 s

Time = 86

Power coefficient["0"] ... 0.305363

Power coefficient["1"] ... 0.305861

Power coefficient["2"] ... 0.305811

Power coefficient["3"] ... 0.301974

smoothSolver:  Solving for Ux, Initial residual = 0.00513579, Final residual = 0.000510919, No Iterations 3
smoothSolver:  Solving for Uy, Initial residual = 0.0056119, Final residual = 0.000545837, No Iterations 3
GAMG:  Solving for p, Initial residual = 0.00483645, Final residual = 0.000239437, No Iterations 3
time step continuity errors : sum local = 1.86112e-06, global = -3.26135e-07, cumulative = -6.55675e-05
smoothSolver:  Solving for epsilon, Initial residual = 0.030477, Final residual = 0.00256515, No Iterations 3
smoothSolver:  Solving for k, Initial residual = 0.0306838, Final residual = 0.00295872, No Iterations 3
ExecutionTime = 133.17 s  ClockTime = 134 s

Time = 87

Power coefficient["0"] ... 0.305265

Power coefficient["1"] ... 0.305735

Power coefficient["2"] ... 0.305686

Power coefficient["3"] ... 0.301858

smoothSolver:  Solving for Ux, Initial residual = 0.00507518, Final residual = 0.000505043, No Iterations 3
smoothSolver:  Solving for Uy, Initial residual = 0.00554629, Final residual = 0.000539581, No Iterations 3
GAMG:  Solving for p, Initial residual = 0.00459149, Final residual = 0.000413358, No Iterations 2
time step continuity errors : sum local = 3.21718e-06, global = 5.65692e-07, cumulative = -6.50018e-05
smoothSolver:  Solving for epsilon, Initial residual = 0.0298066, Final residual = 0.00251001, No Iterations 3
smoothSolver:  Solving for k, Initial residual = 0.030053, Final residual = 0.00289912, No Iterations 3
ExecutionTime = 134.61 s  ClockTime = 135 s

Time = 88

Power coefficient["0"] ... 0.305201

Power coefficient["1"] ... 0.305615

Power coefficient["2"] ... 0.305567

Power coefficient["3"] ... 0.30175

smoothSolver:  Solving for Ux, Initial residual = 0.00501733, Final residual = 0.000499456, No Iterations 3
smoothSolver:  Solving for Uy, Initial residual = 0.00548344, Final residual = 0.000533638, No Iterations 3
GAMG:  Solving for p, Initial residual = 0.00455244, Final residual = 0.000398626, No Iterations 2
time step continuity errors : sum local = 3.10491e-06, global = 5.03011e-07, cumulative = -6.44988e-05
smoothSolver:  Solving for epsilon, Initial residual = 0.0291625, Final residual = 0.00245694, No Iterations 3
smoothSolver:  Solving for k, Initial residual = 0.029446, Final residual = 0.00284171, No Iterations 3
ExecutionTime = 136.04 s  ClockTime = 137 s

Time = 89

Power coefficient["0"] ... 0.305146

Power coefficient["1"] ... 0.305508

Power coefficient["2"] ... 0.30546

Power coefficient["3"] ... 0.301635

smoothSolver:  Solving for Ux, Initial residual = 0.00496101, Final residual = 0.000494016, No Iterations 3
smoothSolver:  Solving for Uy, Initial residual = 0.00542243, Final residual = 0.000527853, No Iterations 3
GAMG:  Solving for p, Initial residual = 0.00462675, Final residual = 0.000433768, No Iterations 2
time step continuity errors : sum local = 3.38149e-06, global = 5.77435e-07, cumulative = -6.39213e-05
smoothSolver:  Solving for epsilon, Initial residual = 0.0285382, Final residual = 0.00240511, No Iterations 3
smoothSolver:  Solving for k, Initial residual = 0.0288574, Final residual = 0.00278563, No Iterations 3
ExecutionTime = 137.48 s  ClockTime = 138 s

Time = 90

Power coefficient["0"] ... 0.305097

Power coefficient["1"] ... 0.305414

Power coefficient["2"] ... 0.305366

Power coefficient["3"] ... 0.301526

smoothSolver:  Solving for Ux, Initial residual = 0.00490587, Final residual = 0.000488666, No Iterations 3
smoothSolver:  Solving for Uy, Initial residual = 0.00536298, Final residual = 0.000522205, No Iterations 3
GAMG:  Solving for p, Initial residual = 0.004719, Final residual = 0.000221974, No Iterations 3
time step continuity errors : sum local = 1.73191e-06, global = -2.81508e-07, cumulative = -6.42028e-05
smoothSolver:  Solving for epsilon, Initial residual = 0.0279294, Final residual = 0.00235483, No Iterations 3
[...]
time step continuity errors : sum local = 1.01279e-07, global = -1.50951e-08, cumulative = -0.000138286
smoothSolver:  Solving for epsilon, Initial residual = 6.10671e-05, Final residual = 3.7251e-06, No Iterations 4
smoothSolver:  Solving for k, Initial residual = 9.67627e-05, Final residual = 6.01636e-06, No Iterations 4
ExecutionTime = 5135.41 s  ClockTime = 5155 s

Time = 3023

Power coefficient["0"] ... 0.317666

Power coefficient["1"] ... 0.294263

Power coefficient["2"] ... 0.218335

Power coefficient["3"] ... 0.229645

smoothSolver:  Solving for Ux, Initial residual = 0.000100935, Final residual = 6.27108e-06, No Iterations 4
smoothSolver:  Solving for Uy, Initial residual = 7.74578e-05, Final residual = 4.58546e-06, No Iterations 4
GAMG:  Solving for p, Initial residual = 0.000149214, Final residual = 7.7355e-06, No Iterations 2
time step continuity errors : sum local = 1.00877e-07, global = 3.95949e-10, cumulative = -0.000138285
smoothSolver:  Solving for epsilon, Initial residual = 6.09372e-05, Final residual = 3.7235e-06, No Iterations 4
smoothSolver:  Solving for k, Initial residual = 9.66683e-05, Final residual = 6.014e-06, No Iterations 4
ExecutionTime = 5136.88 s  ClockTime = 5157 s

Time = 3024

Power coefficient["0"] ... 0.317666

Power coefficient["1"] ... 0.294259

Power coefficient["2"] ... 0.21833

Power coefficient["3"] ... 0.229615

smoothSolver:  Solving for Ux, Initial residual = 0.00010089, Final residual = 6.26856e-06, No Iterations 4
smoothSolver:  Solving for Uy, Initial residual = 7.73465e-05, Final residual = 4.57908e-06, No Iterations 4
GAMG:  Solving for p, Initial residual = 0.000140279, Final residual = 7.7582e-06, No Iterations 2
time step continuity errors : sum local = 1.01166e-07, global = 3.85914e-09, cumulative = -0.000138281
smoothSolver:  Solving for epsilon, Initial residual = 6.08345e-05, Final residual = 3.72196e-06, No Iterations 4
smoothSolver:  Solving for k, Initial residual = 9.65887e-05, Final residual = 6.01169e-06, No Iterations 4
ExecutionTime = 5138.37 s  ClockTime = 5158 s

Time = 3025

Power coefficient["0"] ... 0.317666

Power coefficient["1"] ... 0.294254

Power coefficient["2"] ... 0.218324

Power coefficient["3"] ... 0.229584

smoothSolver:  Solving for Ux, Initial residual = 0.000100844, Final residual = 6.26604e-06, No Iterations 4
smoothSolver:  Solving for Uy, Initial residual = 7.72484e-05, Final residual = 4.57337e-06, No Iterations 4
GAMG:  Solving for p, Initial residual = 0.000132171, Final residual = 6.98884e-06, No Iterations 2
time step continuity errors : sum local = 9.11266e-08, global = 6.70277e-09, cumulative = -0.000138275
smoothSolver:  Solving for epsilon, Initial residual = 6.07516e-05, Final residual = 3.72049e-06, No Iterations 4
smoothSolver:  Solving for k, Initial residual = 9.65198e-05, Final residual = 6.00943e-06, No Iterations 4
ExecutionTime = 5139.85 s  ClockTime = 5160 s

Time = 3026

Power coefficient["0"] ... 0.317666

Power coefficient["1"] ... 0.29425

Power coefficient["2"] ... 0.218318

Power coefficient["3"] ... 0.229554

smoothSolver:  Solving for Ux, Initial residual = 0.000100799, Final residual = 6.26352e-06, No Iterations 4
smoothSolver:  Solving for Uy, Initial residual = 7.71608e-05, Final residual = 4.56831e-06, No Iterations 4
GAMG:  Solving for p, Initial residual = 0.000126588, Final residual = 5.9852e-06, No Iterations 2
time step continuity errors : sum local = 7.80348e-08, global = 1.20846e-08, cumulative = -0.000138263
smoothSolver:  Solving for epsilon, Initial residual = 6.06824e-05, Final residual = 3.71907e-06, No Iterations 4
smoothSolver:  Solving for k, Initial residual = 9.64584e-05, Final residual = 6.00722e-06, No Iterations 4
ExecutionTime = 5141.32 s  ClockTime = 5161 s

Time = 3027

Power coefficient["0"] ... 0.317666

Power coefficient["1"] ... 0.294246

Power coefficient["2"] ... 0.218313

Power coefficient["3"] ... 0.229523

smoothSolver:  Solving for Ux, Initial residual = 0.000100754, Final residual = 6.261e-06, No Iterations 4
smoothSolver:  Solving for Uy, Initial residual = 7.70796e-05, Final residual = 4.56374e-06, No Iterations 4
GAMG:  Solving for p, Initial residual = 0.000120264, Final residual = 4.91189e-06, No Iterations 2
time step continuity errors : sum local = 6.40368e-08, global = 1.10704e-08, cumulative = -0.000138252
smoothSolver:  Solving for epsilon, Initial residual = 6.0623e-05, Final residual = 3.71769e-06, No Iterations 4
smoothSolver:  Solving for k, Initial residual = 9.64024e-05, Final residual = 6.00505e-06, No Iterations 4
ExecutionTime = 5142.81 s  ClockTime = 5163 s

Time = 3028

Power coefficient["0"] ... 0.317666

Power coefficient["1"] ... 0.294242

Power coefficient["2"] ... 0.218307

Power coefficient["3"] ... 0.229493

smoothSolver:  Solving for Ux, Initial residual = 0.000100709, Final residual = 6.25848e-06, No Iterations 4
smoothSolver:  Solving for Uy, Initial residual = 7.69849e-05, Final residual = 4.55883e-06, No Iterations 4
GAMG:  Solving for p, Initial residual = 0.000114437, Final residual = 3.99829e-06, No Iterations 2
time step continuity errors : sum local = 5.21227e-08, global = 3.86039e-09, cumulative = -0.000138248
smoothSolver:  Solving for epsilon, Initial residual = 6.05705e-05, Final residual = 3.71635e-06, No Iterations 4
smoothSolver:  Solving for k, Initial residual = 9.63501e-05, Final residual = 6.0029e-06, No Iterations 4
ExecutionTime = 5144.29 s  ClockTime = 5164 s

Time = 3029

Power coefficient["0"] ... 0.317666

Power coefficient["1"] ... 0.294238

Power coefficient["2"] ... 0.218301

Power coefficient["3"] ... 0.229463

smoothSolver:  Solving for Ux, Initial residual = 0.000100665, Final residual = 6.25596e-06, No Iterations 4
smoothSolver:  Solving for Uy, Initial residual = 7.68727e-05, Final residual = 4.55323e-06, No Iterations 4
GAMG:  Solving for p, Initial residual = 0.000112223, Final residual = 3.71187e-06, No Iterations 2
time step continuity errors : sum local = 4.83858e-08, global = -2.1447e-09, cumulative = -0.00013825
smoothSolver:  Solving for epsilon, Initial residual = 6.0523e-05, Final residual = 3.71504e-06, No Iterations 4
smoothSolver:  Solving for k, Initial residual = 9.63008e-05, Final residual = 6.00079e-06, No Iterations 4
ExecutionTime = 5145.8 s  ClockTime = 5166 s

Time = 3030

Power coefficient["0"] ... 0.317666

Power coefficient["1"] ... 0.294233

Power coefficient["2"] ... 0.218296

Power coefficient["3"] ... 0.229432

smoothSolver:  Solving for Ux, Initial residual = 0.000100621, Final residual = 6.25345e-06, No Iterations 4
smoothSolver:  Solving for Uy, Initial residual = 7.67618e-05, Final residual = 4.54752e-06, No Iterations 4
GAMG:  Solving for p, Initial residual = 0.00011166, Final residual = 3.99333e-06, No Iterations 2
time step continuity errors : sum local = 5.20514e-08, global = -4.40965e-09, cumulative = -0.000138254
smoothSolver:  Solving for epsilon, Initial residual = 6.04794e-05, Final residual = 3.71376e-06, No Iterations 4
smoothSolver:  Solving for k, Initial residual = 9.62536e-05, Final residual = 5.9987e-06, No Iterations 4
ExecutionTime = 5147.28 s  ClockTime = 5167 s

Time = 3031

Power coefficient["0"] ... 0.317666

Power coefficient["1"] ... 0.294229

Power coefficient["2"] ... 0.21829

Power coefficient["3"] ... 0.229402

smoothSolver:  Solving for Ux, Initial residual = 0.000100577, Final residual = 6.25094e-06, No Iterations 4
smoothSolver:  Solving for Uy, Initial residual = 7.66618e-05, Final residual = 4.54204e-06, No Iterations 4
GAMG:  Solving for p, Initial residual = 0.000111396, Final residual = 4.28444e-06, No Iterations 2
time step continuity errors : sum local = 5.58422e-08, global = -2.92484e-09, cumulative = -0.000138257
smoothSolver:  Solving for epsilon, Initial residual = 6.04388e-05, Final residual = 3.7125e-06, No Iterations 4
smoothSolver:  Solving for k, Initial residual = 9.62082e-05, Final residual = 5.99663e-06, No Iterations 4
ExecutionTime = 5148.78 s  ClockTime = 5169 s

Time = 3032

Power coefficient["0"] ... 0.317666

Power coefficient["1"] ... 0.294225

Power coefficient["2"] ... 0.218284

Power coefficient["3"] ... 0.229372

smoothSolver:  Solving for Ux, Initial residual = 0.000100533, Final residual = 6.24843e-06, No Iterations 4
smoothSolver:  Solving for Uy, Initial residual = 7.65714e-05, Final residual = 4.53679e-06, No Iterations 4
GAMG:  Solving for p, Initial residual = 0.000111691, Final residual = 4.37017e-06, No Iterations 2
time step continuity errors : sum local = 5.69556e-08, global = 9.37063e-10, cumulative = -0.000138256
smoothSolver:  Solving for epsilon, Initial residual = 6.04004e-05, Final residual = 3.71126e-06, No Iterations 4
smoothSolver:  Solving for k, Initial residual = 9.61641e-05, Final residual = 5.99459e-06, No Iterations 4
ExecutionTime = 5150.25 s  ClockTime = 5170 s

Time = 3033

Power coefficient["0"] ... 0.317666

Power coefficient["1"] ... 0.294221

Power coefficient["2"] ... 0.218279

Power coefficient["3"] ... 0.229342

smoothSolver:  Solving for Ux, Initial residual = 0.000100489, Final residual = 6.24594e-06, No Iterations 4
smoothSolver:  Solving for Uy, Initial residual = 7.64837e-05, Final residual = 4.53156e-06, No Iterations 4
GAMG:  Solving for p, Initial residual = 0.000111605, Final residual = 4.29252e-06, No Iterations 2
time step continuity errors : sum local = 5.59396e-08, global = 4.59562e-09, cumulative = -0.000138252
smoothSolver:  Solving for epsilon, Initial residual = 6.03639e-05, Final residual = 3.71004e-06, No Iterations 4
smoothSolver:  Solving for k, Initial residual = 9.61211e-05, Final residual = 5.99256e-06, No Iterations 4
ExecutionTime = 5151.75 s  ClockTime = 5172 s

Time = 3034

Power coefficient["0"] ... 0.317666

Power coefficient["1"] ... 0.294217

Power coefficient["2"] ... 0.218273

Power coefficient["3"] ... 0.229311

smoothSolver:  Solving for Ux, Initial residual = 0.000100445, Final residual = 6.24344e-06, No Iterations 4
smoothSolver:  Solving for Uy, Initial residual = 7.63902e-05, Final residual = 4.5262e-06, No Iterations 4
GAMG:  Solving for p, Initial residual = 0.000110838, Final residual = 4.14453e-06, No Iterations 2
time step continuity errors : sum local = 5.40075e-08, global = 5.81341e-09, cumulative = -0.000138246
smoothSolver:  Solving for epsilon, Initial residual = 6.03288e-05, Final residual = 3.70884e-06, No Iterations 4
smoothSolver:  Solving for k, Initial residual = 9.6079e-05, Final residual = 5.99054e-06, No Iterations 4
ExecutionTime = 5153.24 s  ClockTime = 5173 s

Time = 3035

Power coefficient["0"] ... 0.317666

Power coefficient["1"] ... 0.294213

Power coefficient["2"] ... 0.218267

Power coefficient["3"] ... 0.229281

smoothSolver:  Solving for Ux, Initial residual = 0.000100401, Final residual = 6.24093e-06, No Iterations 4
smoothSolver:  Solving for Uy, Initial residual = 7.62874e-05, Final residual = 4.52065e-06, No Iterations 4
GAMG:  Solving for p, Initial residual = 0.000110026, Final residual = 4.00141e-06, No Iterations 2
time step continuity errors : sum local = 5.2139e-08, global = 4.36273e-09, cumulative = -0.000138241
smoothSolver:  Solving for epsilon, Initial residual = 6.02949e-05, Final residual = 3.70765e-06, No Iterations 4
smoothSolver:  Solving for k, Initial residual = 9.60376e-05, Final residual = 5.98854e-06, No Iterations 4
ExecutionTime = 5154.75 s  ClockTime = 5175 s

Time = 3036

Power coefficient["0"] ... 0.317666

Power coefficient["1"] ... 0.294209

Power coefficient["2"] ... 0.218262

Power coefficient["3"] ... 0.229251

smoothSolver:  Solving for Ux, Initial residual = 0.000100356, Final residual = 6.23842e-06, No Iterations 4
smoothSolver:  Solving for Uy, Initial residual = 7.61794e-05, Final residual = 4.515e-06, No Iterations 4
GAMG:  Solving for p, Initial residual = 0.000109707, Final residual = 3.99031e-06, No Iterations 2
time step continuity errors : sum local = 5.19911e-08, global = 2.17265e-09, cumulative = -0.000138239
smoothSolver:  Solving for epsilon, Initial residual = 6.09575e-05, Final residual = 3.72202e-06, No Iterations 4
smoothSolver:  Solving for k, Initial residual = 9.63892e-05, Final residual = 5.998e-06, No Iterations 4
ExecutionTime = 5156.25 s  ClockTime = 5176 s

Time = 3037

Power coefficient["0"] ... 0.317666

Power coefficient["1"] ... 0.294204

Power coefficient["2"] ... 0.218256

Power coefficient["3"] ... 0.229221

smoothSolver:  Solving for Ux, Initial residual = 0.000100318, Final residual = 6.23598e-06, No Iterations 4
smoothSolver:  Solving for Uy, Initial residual = 7.60934e-05, Final residual = 4.50953e-06, No Iterations 4
GAMG:  Solving for p, Initial residual = 0.00014372, Final residual = 7.28416e-06, No Iterations 2
time step continuity errors : sum local = 9.49073e-08, global = -2.01938e-08, cumulative = -0.000138259
smoothSolver:  Solving for epsilon, Initial residual = 6.08031e-05, Final residual = 3.71739e-06, No Iterations 4
smoothSolver:  Solving for k, Initial residual = 9.62818e-05, Final residual = 5.99358e-06, No Iterations 4
ExecutionTime = 5157.81 s  ClockTime = 5178 s

Time = 3038

Power coefficient["0"] ... 0.317666

Power coefficient["1"] ... 0.2942

Power coefficient["2"] ... 0.21825

Power coefficient["3"] ... 0.22919

smoothSolver:  Solving for Ux, Initial residual = 0.00010027, Final residual = 6.23338e-06, No Iterations 4
smoothSolver:  Solving for Uy, Initial residual = 7.59534e-05, Final residual = 4.50324e-06, No Iterations 4
GAMG:  Solving for p, Initial residual = 0.000143592, Final residual = 8.10575e-06, No Iterations 2
time step continuity errors : sum local = 1.05605e-07, global = -1.6469e-08, cumulative = -0.000138276
smoothSolver:  Solving for epsilon, Initial residual = 6.06615e-05, Final residual = 3.71408e-06, No Iterations 4
smoothSolver:  Solving for k, Initial residual = 9.61822e-05, Final residual = 5.99007e-06, No Iterations 4
ExecutionTime = 5159.32 s  ClockTime = 5179 s

Time = 3039

Power coefficient["0"] ... 0.317666

Power coefficient["1"] ... 0.294196

Power coefficient["2"] ... 0.218244

Power coefficient["3"] ... 0.22916

smoothSolver:  Solving for Ux, Initial residual = 0.000100225, Final residual = 6.23084e-06, No Iterations 4
smoothSolver:  Solving for Uy, Initial residual = 7.58473e-05, Final residual = 4.4974e-06, No Iterations 4
GAMG:  Solving for p, Initial residual = 0.000136849, Final residual = 7.93557e-06, No Iterations 2
time step continuity errors : sum local = 1.03379e-07, global = 4.03765e-09, cumulative = -0.000138272
smoothSolver:  Solving for epsilon, Initial residual = 6.05479e-05, Final residual = 3.71145e-06, No Iterations 4
smoothSolver:  Solving for k, Initial residual = 9.60978e-05, Final residual = 5.98703e-06, No Iterations 4
ExecutionTime = 5160.81 s  ClockTime = 5181 s

Time = 3040

Power coefficient["0"] ... 0.317666

Power coefficient["1"] ... 0.294192

Power coefficient["2"] ... 0.218238

Power coefficient["3"] ... 0.22913

smoothSolver:  Solving for Ux, Initial residual = 0.00010018, Final residual = 6.22834e-06, No Iterations 4
smoothSolver:  Solving for Uy, Initial residual = 7.57748e-05, Final residual = 4.49263e-06, No Iterations 4
GAMG:  Solving for p, Initial residual = 0.000129807, Final residual = 7.19362e-06, No Iterations 2
time step continuity errors : sum local = 9.3706e-08, global = 1.29493e-08, cumulative = -0.000138259
smoothSolver:  Solving for epsilon, Initial residual = 6.04576e-05, Final residual = 3.70925e-06, No Iterations 4
smoothSolver:  Solving for k, Initial residual = 9.60259e-05, Final residual = 5.9843e-06, No Iterations 4
ExecutionTime = 5162.29 s  ClockTime = 5182 s

Time = 3041

Power coefficient["0"] ... 0.317666

Power coefficient["1"] ... 0.294188

Power coefficient["2"] ... 0.218233

Power coefficient["3"] ... 0.2291

smoothSolver:  Solving for Ux, Initial residual = 0.000100135, Final residual = 6.22584e-06, No Iterations 4
smoothSolver:  Solving for Uy, Initial residual = 7.57137e-05, Final residual = 4.4885e-06, No Iterations 4
GAMG:  Solving for p, Initial residual = 0.000125219, Final residual = 5.91239e-06, No Iterations 2
time step continuity errors : sum local = 7.70101e-08, global = 1.5026e-08, cumulative = -0.000138244
smoothSolver:  Solving for epsilon, Initial residual = 6.03843e-05, Final residual = 3.70733e-06, No Iterations 4
smoothSolver:  Solving for k, Initial residual = 9.5963e-05, Final residual = 5.98177e-06, No Iterations 4
ExecutionTime = 5163.79 s  ClockTime = 5184 s

Time = 3042

Power coefficient["0"] ... 0.317666

Power coefficient["1"] ... 0.294184

Power coefficient["2"] ... 0.218227

Power coefficient["3"] ... 0.22907

smoothSolver:  Solving for Ux, Initial residual = 0.000100091, Final residual = 6.22335e-06, No Iterations 4
smoothSolver:  Solving for Uy, Initial residual = 7.56341e-05, Final residual = 4.48405e-06, No Iterations 4
GAMG:  Solving for p, Initial residual = 0.000119255, Final residual = 4.62058e-06, No Iterations 2
time step continuity errors : sum local = 6.01797e-08, global = 1.27668e-08, cumulative = -0.000138231
smoothSolver:  Solving for epsilon, Initial residual = 6.03228e-05, Final residual = 3.7056e-06, No Iterations 4
smoothSolver:  Solving for k, Initial residual = 9.59064e-05, Final residual = 5.97937e-06, No Iterations 4
ExecutionTime = 5165.3 s  ClockTime = 5185 s

Time = 3043

Power coefficient["0"] ... 0.317666

Power coefficient["1"] ... 0.29418

Power coefficient["2"] ... 0.218221

Power coefficient["3"] ... 0.229039

smoothSolver:  Solving for Ux, Initial residual = 0.000100047, Final residual = 6.22086e-06, No Iterations 4
smoothSolver:  Solving for Uy, Initial residual = 7.55229e-05, Final residual = 4.47856e-06, No Iterations 4
GAMG:  Solving for p, Initial residual = 0.000113001, Final residual = 3.71737e-06, No Iterations 2
time step continuity errors : sum local = 4.8413e-08, global = 4.32649e-09, cumulative = -0.000138227
smoothSolver:  Solving for epsilon, Initial residual = 6.02695e-05, Final residual = 3.70401e-06, No Iterations 4
smoothSolver:  Solving for k, Initial residual = 9.58543e-05, Final residual = 5.97708e-06, No Iterations 4
ExecutionTime = 5166.79 s  ClockTime = 5187 s

Time = 3044

Power coefficient["0"] ... 0.317666

Power coefficient["1"] ... 0.294176

Power coefficient["2"] ... 0.218215

Power coefficient["3"] ... 0.229009

smoothSolver:  Solving for Ux, Initial residual = 0.000100003, Final residual = 6.21837e-06, No Iterations 4
smoothSolver:  Solving for Uy, Initial residual = 7.53958e-05, Final residual = 4.47236e-06, No Iterations 4
GAMG:  Solving for p, Initial residual = 0.000111488, Final residual = 3.76033e-06, No Iterations 2
time step continuity errors : sum local = 4.89695e-08, global = -1.11166e-09, cumulative = -0.000138228
smoothSolver:  Solving for epsilon, Initial residual = 6.09177e-05, Final residual = 3.7076e-06, No Iterations 4
smoothSolver:  Solving for k, Initial residual = 9.62011e-05, Final residual = 5.97893e-06, No Iterations 4
ExecutionTime = 5168.26 s  ClockTime = 5188 s

Time = 3045

Power coefficient["0"] ... 0.317666

Power coefficient["1"] ... 0.294171

Power coefficient["2"] ... 0.218209

Power coefficient["3"] ... 0.228979

smoothSolver:  Solving for Ux, Initial residual = 9.99673e-05, Final residual = 6.21588e-06, No Iterations 4
smoothSolver:  Solving for Uy, Initial residual = 7.53067e-05, Final residual = 4.46623e-06, No Iterations 4
GAMG:  Solving for p, Initial residual = 0.00016114, Final residual = 8.57139e-06, No Iterations 2
time step continuity errors : sum local = 1.11623e-07, global = -2.97053e-08, cumulative = -0.000138258
smoothSolver:  Solving for epsilon, Initial residual = 6.0751e-05, Final residual = 3.70591e-06, No Iterations 4
smoothSolver:  Solving for k, Initial residual = 9.6086e-05, Final residual = 5.97656e-06, No Iterations 4
ExecutionTime = 5169.74 s  ClockTime = 5190 s


SIMPLE solution converged in 3045 iterations

End

